<?xml version="1.0" encoding="UTF-8"?>

<!-- generated on 2024-10-15 16:44:36 by Eclipse SUMO sumo Version 1.20.0
-->

<configuration xmlns:xsi="http://www.w3.org/2001/XMLSchema-instance" xsi:noNamespaceSchemaLocation="http://sumo.dlr.de/xsd/sumoConfiguration.xsd">

    <input>
        <net-file value="cauH.net.xml"/>
        <route-files value="cauH.rou.xml"/>
        <additional-files value="cauH.poly.xml"/>
    </input>

</configuration>
