<?xml version="1.0" encoding="UTF-8"?>

<!-- generated on 2024-11-18 21:47:14 by Eclipse SUMO polyconvert Version 1.20.0
<configuration xmlns:xsi="http://www.w3.org/2001/XMLSchema-instance" xsi:noNamespaceSchemaLocation="http://sumo.dlr.de/xsd/polyconvertConfiguration.xsd">

    <input>
        <osm-files value="cauH.osm"/>
    </input>

    <output>
        <output-file value="cauH.poly.xml"/>
    </output>

    <projection>
        <proj.scale value="1.00000"/>
        <proj.utm value="true"/>
        <proj.plain-geo value="true"/>
    </projection>

</configuration>
-->

<additional xmlns:xsi="http://www.w3.org/2001/XMLSchema-instance" xsi:noNamespaceSchemaLocation="http://sumo.dlr.de/xsd/additional_file.xsd">
    <poly id="1004366684" type="building" color="255,230,230" fill="1" layer="-1.000000" geo="1" shape="126.949414,37.503468 126.949435,37.503366 126.949494,37.503281 126.949737,37.503373 126.949771,37.503382 126.949659,37.503550 126.949625,37.503551 126.949612,37.503534 126.949414,37.503468"/>
    <poly id="1079493545" type="building" color="255,230,230" fill="1" layer="-1.00" geo="1" shape="126.946597,37.502424 126.946434,37.502602 126.946239,37.502490 126.946299,37.502425 126.946322,37.502439 126.946426,37.502326 126.946597,37.502424"/>
    <poly id="1097137445" type="building" color="255,230,230" fill="1" layer="-1.00" geo="1" shape="126.946769,37.495938 126.946742,37.495893 126.946718,37.495902 126.946691,37.495854 126.946801,37.495814 126.946854,37.495908 126.946769,37.495938"/>
    <poly id="1097137446" type="building" color="255,230,230" fill="1" layer="-1.00" geo="1" shape="126.946569,37.496066 126.946517,37.495974 126.946658,37.495924 126.946710,37.496016 126.946569,37.496066"/>
    <poly id="1097137447" type="building" color="255,230,230" fill="1" layer="-1.00" geo="1" shape="126.946625,37.496176 126.946770,37.496129 126.946796,37.496180 126.946652,37.496227 126.946625,37.496176"/>
    <poly id="1097137448" type="building" color="255,230,230" fill="1" layer="-1.00" geo="1" shape="126.946525,37.496246 126.946576,37.496228 126.946557,37.496195 126.946604,37.496178 126.946646,37.496251 126.946549,37.496287 126.946525,37.496246"/>
    <poly id="1097137449" type="building" color="255,230,230" fill="1" layer="-1.00" geo="1" shape="126.946825,37.496232 126.946900,37.496357 126.946786,37.496400 126.946711,37.496274 126.946825,37.496232"/>
    <poly id="1097137450" type="building" color="255,230,230" fill="1" layer="-1.00" geo="1" shape="126.946787,37.496043 126.946899,37.496002 126.946923,37.496044 126.946898,37.496052 126.946936,37.496117 126.946849,37.496148 126.946787,37.496043"/>
    <poly id="1097137451" type="building" color="255,230,230" fill="1" layer="-1.00" geo="1" shape="126.946921,37.496264 126.946869,37.496172 126.946939,37.496147 126.946991,37.496240 126.946921,37.496264"/>
    <poly id="1097137452" type="building" color="255,230,230" fill="1" layer="-1.00" geo="1" shape="126.946402,37.496160 126.946517,37.496124 126.946481,37.496052 126.946366,37.496088 126.946402,37.496160"/>
    <poly id="1097137455" type="building" color="255,230,230" fill="1" layer="-1.00" geo="1" shape="126.946506,37.495328 126.946592,37.495460 126.946694,37.495418 126.946623,37.495309 126.946573,37.495330 126.946557,37.495306 126.946506,37.495328"/>
    <poly id="1097469224" type="building" color="255,230,230" fill="1" layer="-1.00" geo="1" shape="126.949885,37.497809 126.949683,37.497609 126.949756,37.497562 126.949695,37.497501 126.949448,37.497658 126.949504,37.497713 126.949581,37.497664 126.949789,37.497871 126.949885,37.497809"/>
    <poly id="1097469225" type="building" color="255,230,230" fill="1" layer="-1.00" geo="1" shape="126.948932,37.497975 126.949063,37.497979 126.949075,37.497682 126.949173,37.497730 126.949196,37.497647 126.949063,37.497583 126.948944,37.497589 126.948828,37.497631 126.948844,37.497718 126.948944,37.497678 126.948932,37.497975"/>
    <poly id="1097469226" type="building" color="255,230,230" fill="1" layer="-1.00" geo="1" shape="126.949000,37.497473 126.949132,37.497464 126.949112,37.497272 126.949183,37.497307 126.949201,37.497233 126.949093,37.497180 126.948975,37.497181 126.948860,37.497214 126.948900,37.497300 126.948979,37.497277 126.949000,37.497473"/>
    <poly id="1097469227" type="building" color="255,230,230" fill="1" layer="-1.00" geo="1" shape="126.949727,37.497284 126.949828,37.497208 126.949686,37.497089 126.949760,37.497033 126.949669,37.496956 126.949400,37.497158 126.949489,37.497233 126.949582,37.497163 126.949727,37.497284"/>
    <poly id="1097469244" type="building" color="255,230,230" fill="1" layer="-1.00" geo="1" shape="126.946387,37.499228 126.946832,37.499214 126.946827,37.499106 126.946382,37.499119 126.946387,37.499228"/>
    <poly id="1097469245" type="building" color="255,230,230" fill="1" layer="-1.00" geo="1" shape="126.946886,37.499233 126.947069,37.499236 126.947070,37.499171 126.947031,37.499171 126.947032,37.499121 126.946889,37.499119 126.946886,37.499233"/>
    <poly id="1097469246" type="building" color="255,230,230" fill="1" layer="-1.00" geo="1" shape="126.949477,37.496745 126.949567,37.496660 126.949409,37.496554 126.949475,37.496492 126.949371,37.496422 126.949125,37.496655 126.949181,37.496692 126.949164,37.496708 126.949208,37.496738 126.949315,37.496637 126.949477,37.496745"/>
    <poly id="1097469247" type="building" color="255,230,230" fill="1" layer="-1.00" geo="1" shape="126.949184,37.496262 126.949270,37.496167 126.949125,37.496084 126.949184,37.496019 126.949051,37.495944 126.948829,37.496189 126.948894,37.496227 126.948877,37.496245 126.948919,37.496269 126.949014,37.496165 126.949184,37.496262"/>
    <poly id="1098251919" type="building" color="255,230,230" fill="1" layer="-1.00" geo="1" shape="126.946373,37.499061 126.946374,37.498997 126.946520,37.498998 126.946519,37.499062 126.946373,37.499061"/>
    <poly id="1098251920" type="building" color="255,230,230" fill="1" layer="-1.00" geo="1" shape="126.946543,37.499065 126.946544,37.499000 126.946691,37.499002 126.946690,37.499067 126.946543,37.499065"/>
    <poly id="1098251921" type="building" color="255,230,230" fill="1" layer="-1.00" geo="1" shape="126.946541,37.498968 126.946542,37.498904 126.946688,37.498905 126.946687,37.498969 126.946541,37.498968"/>
    <poly id="1098251922" type="building" color="255,230,230" fill="1" layer="-1.00" geo="1" shape="126.946368,37.498964 126.946369,37.498901 126.946515,37.498902 126.946514,37.498966 126.946368,37.498964"/>
    <poly id="1098251923" type="building" color="255,230,230" fill="1" layer="-1.00" geo="1" shape="126.946366,37.498858 126.946367,37.498794 126.946513,37.498795 126.946512,37.498859 126.946366,37.498858"/>
    <poly id="1098251924" type="building" color="255,230,230" fill="1" layer="-1.00" geo="1" shape="126.946544,37.498861 126.946545,37.498797 126.946691,37.498798 126.946690,37.498862 126.946544,37.498861"/>
    <poly id="1098251926" type="building" color="255,230,230" fill="1" layer="-1.00" geo="1" shape="126.946757,37.498877 126.946758,37.498807 126.946896,37.498809 126.946894,37.498878 126.946757,37.498877"/>
    <poly id="1098251927" type="building" color="255,230,230" fill="1" layer="-1.00" geo="1" shape="126.946926,37.498888 126.946928,37.498818 126.947065,37.498820 126.947064,37.498890 126.946926,37.498888"/>
    <poly id="1098251928" type="building" color="255,230,230" fill="1" layer="-1.00" geo="1" shape="126.946920,37.498985 126.946921,37.498915 126.947059,37.498917 126.947057,37.498987 126.946920,37.498985"/>
    <poly id="1098251929" type="building" color="255,230,230" fill="1" layer="-1.00" geo="1" shape="126.946764,37.498979 126.946766,37.498910 126.946903,37.498911 126.946901,37.498981 126.946764,37.498979"/>
    <poly id="1098251930" type="building" color="255,230,230" fill="1" layer="-1.00" geo="1" shape="126.946903,37.499085 126.946905,37.499015 126.947043,37.499017 126.947041,37.499087 126.946903,37.499085"/>
    <poly id="1098251931" type="building" color="255,230,230" fill="1" layer="-1.00" geo="1" shape="126.946748,37.499078 126.946748,37.498996 126.946835,37.498997 126.946835,37.499007 126.946887,37.499007 126.946887,37.499071 126.946812,37.499071 126.946812,37.499079 126.946748,37.499078"/>
    <poly id="1098251932" type="building" color="255,230,230" fill="1" layer="-1.00" geo="1" shape="126.947119,37.499086 126.947121,37.499017 126.947258,37.499019 126.947257,37.499088 126.947119,37.499086"/>
    <poly id="1098251933" type="building" color="255,230,230" fill="1" layer="-1.00" geo="1" shape="126.947122,37.498966 126.947123,37.498896 126.947261,37.498898 126.947259,37.498968 126.947122,37.498966"/>
    <poly id="1098251934" type="building" color="255,230,230" fill="1" layer="-1.00" geo="1" shape="126.947136,37.498782 126.947136,37.498738 126.947176,37.498738 126.947176,37.498714 126.947274,37.498715 126.947272,37.498783 126.947136,37.498782"/>
    <poly id="1098251935" type="building" color="255,230,230" fill="1" layer="-1.00" geo="1" shape="126.947158,37.498880 126.947160,37.498804 126.947266,37.498805 126.947265,37.498881 126.947158,37.498880"/>
    <poly id="1098251936" type="building" color="255,230,230" fill="1" layer="-1.00" geo="1" shape="126.947176,37.498127 126.947305,37.498127 126.947305,37.498026 126.947176,37.498026 126.947176,37.498127"/>
    <poly id="1098251937" type="building" color="255,230,230" fill="1" layer="-1.00" geo="1" shape="126.947180,37.497970 126.947305,37.497971 126.947305,37.497922 126.947181,37.497921 126.947180,37.497970"/>
    <poly id="1098251938" type="building" color="255,230,230" fill="1" layer="-1.00" geo="1" shape="126.947179,37.497901 126.947306,37.497903 126.947307,37.497861 126.947180,37.497859 126.947179,37.497901"/>
    <poly id="1098251939" type="building" color="255,230,230" fill="1" layer="-1.00" geo="1" shape="126.947177,37.497844 126.947303,37.497845 126.947304,37.497796 126.947179,37.497795 126.947177,37.497844"/>
    <poly id="1098251942" type="building" color="255,230,230" fill="1" layer="-1.00" geo="1" shape="126.947135,37.498692 126.947136,37.498648 126.947175,37.498649 126.947176,37.498624 126.947273,37.498625 126.947272,37.498694 126.947135,37.498692"/>
    <poly id="1098251943" type="building" color="255,230,230" fill="1" layer="-1.00" geo="1" shape="126.947145,37.498574 126.947278,37.498575 126.947279,37.498502 126.947146,37.498501 126.947145,37.498574"/>
    <poly id="1098251944" type="building" color="255,230,230" fill="1" layer="-1.00" geo="1" shape="126.947339,37.498488 126.947340,37.498417 126.947486,37.498419 126.947484,37.498489 126.947339,37.498488"/>
    <poly id="1098251945" type="building" color="255,230,230" fill="1" layer="-1.00" geo="1" shape="126.947314,37.498596 126.947318,37.498520 126.947340,37.498521 126.947341,37.498509 126.947442,37.498512 126.947439,37.498573 126.947401,37.498572 126.947401,37.498585 126.947353,37.498584 126.947353,37.498597 126.947314,37.498596"/>
    <poly id="1098251946" type="building" color="255,230,230" fill="1" layer="-1.00" geo="1" shape="126.947161,37.498459 126.947295,37.498461 126.947296,37.498387 126.947163,37.498386 126.947161,37.498459"/>
    <poly id="1098251947" type="building" color="255,230,230" fill="1" layer="-1.00" geo="1" shape="126.947164,37.498352 126.947297,37.498355 126.947299,37.498291 126.947166,37.498289 126.947164,37.498352"/>
    <poly id="1098251948" type="building" color="255,230,230" fill="1" layer="-1.00" geo="1" shape="126.947165,37.498264 126.947299,37.498266 126.947300,37.498203 126.947167,37.498200 126.947165,37.498264"/>
    <poly id="1098251949" type="building" color="255,230,230" fill="1" layer="-1.00" geo="1" shape="126.946946,37.498351 126.947099,37.498353 126.947100,37.498292 126.946947,37.498290 126.946946,37.498351"/>
    <poly id="1098251950" type="building" color="255,230,230" fill="1" layer="-1.00" geo="1" shape="126.946961,37.498255 126.947114,37.498259 126.947117,37.498198 126.946964,37.498194 126.946961,37.498255"/>
    <poly id="1098251951" type="building" color="255,230,230" fill="1" layer="-1.00" geo="1" shape="126.946946,37.498454 126.947099,37.498458 126.947101,37.498396 126.946948,37.498393 126.946946,37.498454"/>
    <poly id="1098251952" type="building" color="255,230,230" fill="1" layer="-1.00" geo="1" shape="126.946939,37.498554 126.947092,37.498556 126.947093,37.498495 126.946940,37.498493 126.946939,37.498554"/>
    <poly id="1098251953" type="building" color="255,230,230" fill="1" layer="-1.00" geo="1" shape="126.946925,37.498653 126.947078,37.498655 126.947079,37.498594 126.946927,37.498592 126.946925,37.498653"/>
    <poly id="1098251954" type="building" color="255,230,230" fill="1" layer="-1.00" geo="1" shape="126.946922,37.498760 126.947075,37.498762 126.947076,37.498701 126.946923,37.498699 126.946922,37.498760"/>
    <poly id="1098251955" type="building" color="255,230,230" fill="1" layer="-1.00" geo="1" shape="126.946774,37.498765 126.946775,37.498702 126.946798,37.498702 126.946798,37.498682 126.946904,37.498682 126.946904,37.498766 126.946774,37.498765"/>
    <poly id="1098251956" type="building" color="255,230,230" fill="1" layer="-1.00" geo="1" shape="126.946764,37.498650 126.946764,37.498603 126.946798,37.498604 126.946798,37.498575 126.946905,37.498575 126.946904,37.498651 126.946764,37.498650"/>
    <poly id="1098251957" type="building" color="255,230,230" fill="1" layer="-1.00" geo="1" shape="126.946759,37.498444 126.946912,37.498447 126.946914,37.498386 126.946761,37.498383 126.946759,37.498444"/>
    <poly id="1098251958" type="building" color="255,230,230" fill="1" layer="-1.00" geo="1" shape="126.946755,37.498543 126.946908,37.498546 126.946910,37.498485 126.946757,37.498482 126.946755,37.498543"/>
    <poly id="1098461204" type="building" color="255,230,230" fill="1" layer="-1.00" geo="1" shape="126.946379,37.495327 126.946352,37.495284 126.946442,37.495248 126.946469,37.495292 126.946379,37.495327"/>
    <poly id="1098461205" type="building" color="255,230,230" fill="1" layer="-1.00" geo="1" shape="126.946381,37.495383 126.946411,37.495431 126.946527,37.495385 126.946489,37.495325 126.946434,37.495347 126.946442,37.495359 126.946381,37.495383"/>
    <poly id="1098461206" type="building" color="255,230,230" fill="1" layer="-1.00" geo="1" shape="126.947198,37.497369 126.947196,37.497265 126.947523,37.497264 126.947520,37.497365 126.947198,37.497369"/>
    <poly id="1098461207" type="building" color="255,230,230" fill="1" layer="-1.00" geo="1" shape="126.947208,37.497230 126.947207,37.497126 126.947517,37.497126 126.947517,37.497229 126.947208,37.497230"/>
    <poly id="1098463350" type="building" color="255,230,230" fill="1" layer="-1.00" geo="1" shape="126.946355,37.496042 126.946469,37.496003 126.946431,37.495932 126.946317,37.495971 126.946355,37.496042"/>
    <poly id="1099433618" type="building" color="255,230,230" fill="1" layer="-1.00" geo="1" shape="126.946377,37.498639 126.946378,37.498587 126.946412,37.498588 126.946412,37.498567 126.946529,37.498570 126.946527,37.498642 126.946377,37.498639"/>
    <poly id="1099433619" type="building" color="255,230,230" fill="1" layer="-1.00" geo="1" shape="126.946547,37.498645 126.946685,37.498648 126.946687,37.498589 126.946549,37.498585 126.946547,37.498645"/>
    <poly id="1099433620" type="building" color="255,230,230" fill="1" layer="-1.00" geo="1" shape="126.946385,37.498747 126.946515,37.498748 126.946515,37.498664 126.946417,37.498664 126.946416,37.498689 126.946385,37.498689 126.946385,37.498747"/>
    <poly id="1099433621" type="building" color="255,230,230" fill="1" layer="-1.00" geo="1" shape="126.946538,37.498750 126.946687,37.498750 126.946687,37.498705 126.946650,37.498705 126.946650,37.498671 126.946538,37.498671 126.946538,37.498750"/>
    <poly id="1099433622" type="building" color="255,230,230" fill="1" layer="-1.00" geo="1" shape="126.946384,37.498544 126.946386,37.498480 126.946539,37.498483 126.946537,37.498547 126.946384,37.498544"/>
    <poly id="1099433623" type="building" color="255,230,230" fill="1" layer="-1.00" geo="1" shape="126.946384,37.498439 126.946386,37.498376 126.946538,37.498379 126.946536,37.498442 126.946384,37.498439"/>
    <poly id="1099433624" type="building" color="255,230,230" fill="1" layer="-1.00" geo="1" shape="126.946410,37.498350 126.946410,37.498309 126.946447,37.498309 126.946447,37.498290 126.946532,37.498290 126.946532,37.498350 126.946410,37.498350"/>
    <poly id="1099433625" type="building" color="255,230,230" fill="1" layer="-1.00" geo="1" shape="126.946548,37.498540 126.946698,37.498543 126.946701,37.498472 126.946551,37.498468 126.946548,37.498540"/>
    <poly id="1099433626" type="building" color="255,230,230" fill="1" layer="-1.00" geo="1" shape="126.946548,37.498445 126.946698,37.498449 126.946701,37.498377 126.946551,37.498374 126.946548,37.498445"/>
    <poly id="1099433627" type="building" color="255,230,230" fill="1" layer="-1.00" geo="1" shape="126.946551,37.498345 126.946701,37.498349 126.946704,37.498277 126.946554,37.498274 126.946551,37.498345"/>
    <poly id="1100995725" type="building" color="255,230,230" fill="1" layer="-1.00" geo="1" shape="126.946591,37.497792 126.946740,37.497794 126.946742,37.497648 126.946593,37.497647 126.946591,37.497792"/>
    <poly id="1100995726" type="building" color="255,230,230" fill="1" layer="-1.00" geo="1" shape="126.946422,37.497820 126.946424,37.497752 126.946548,37.497754 126.946546,37.497822 126.946422,37.497820"/>
    <poly id="1100995727" type="building" color="255,230,230" fill="1" layer="-1.00" geo="1" shape="126.946451,37.497737 126.946452,37.497633 126.946562,37.497633 126.946562,37.497737 126.946451,37.497737"/>
    <poly id="1100995734" type="building" color="255,230,230" fill="1" layer="-1.00" geo="1" shape="126.947836,37.498704 126.947838,37.498632 126.947924,37.498634 126.947922,37.498705 126.947836,37.498704"/>
    <poly id="1100995735" type="building" color="255,230,230" fill="1" layer="-1.00" geo="1" shape="126.947930,37.498715 126.947931,37.498647 126.948023,37.498648 126.948021,37.498716 126.947930,37.498715"/>
    <poly id="1100995736" type="building" color="255,230,230" fill="1" layer="-1.00" geo="1" shape="126.947801,37.498779 126.947845,37.498832 126.947953,37.498776 126.947909,37.498722 126.947801,37.498779"/>
    <poly id="1101540454" type="building" color="255,230,230" fill="1" layer="-1.00" geo="1" shape="126.946991,37.498110 126.947129,37.498110 126.947129,37.498041 126.946991,37.498040 126.946991,37.498110"/>
    <poly id="1101540455" type="building" color="255,230,230" fill="1" layer="-1.00" geo="1" shape="126.946812,37.498118 126.946950,37.498119 126.946950,37.498049 126.946812,37.498049 126.946812,37.498118"/>
    <poly id="1101540456" type="building" color="255,230,230" fill="1" layer="-1.00" geo="1" shape="126.946976,37.498007 126.946977,37.497956 126.947057,37.497957 126.947057,37.497941 126.947125,37.497942 126.947123,37.498009 126.946976,37.498007"/>
    <poly id="1101540457" type="building" color="255,230,230" fill="1" layer="-1.00" geo="1" shape="126.946825,37.498005 126.946826,37.497926 126.946946,37.497927 126.946946,37.498006 126.946825,37.498005"/>
    <poly id="1101540458" type="building" color="255,230,230" fill="1" layer="-1.00" geo="1" shape="126.946831,37.497869 126.946834,37.497763 126.946954,37.497765 126.946951,37.497871 126.946831,37.497869"/>
    <poly id="1101540459" type="building" color="255,230,230" fill="1" layer="-1.00" geo="1" shape="126.946830,37.497600 126.946830,37.497460 126.946943,37.497460 126.946944,37.497600 126.946830,37.497600"/>
    <poly id="1101540460" type="building" color="255,230,230" fill="1" layer="-1.00" geo="1" shape="126.946834,37.497399 126.946955,37.497398 126.946954,37.497314 126.946834,37.497314 126.946834,37.497399"/>
    <poly id="1101540461" type="building" color="255,230,230" fill="1" layer="-1.00" geo="1" shape="126.946838,37.497259 126.946956,37.497257 126.946953,37.497145 126.946835,37.497147 126.946838,37.497259"/>
    <poly id="1101540462" type="building" color="255,230,230" fill="1" layer="-1.00" geo="1" shape="126.946815,37.496923 126.946815,37.496856 126.946956,37.496857 126.946956,37.496924 126.946815,37.496923"/>
    <poly id="1101540463" type="building" color="255,230,230" fill="1" layer="-1.00" geo="1" shape="126.946813,37.496824 126.946814,37.496782 126.946845,37.496783 126.946845,37.496762 126.946963,37.496763 126.946962,37.496825 126.946813,37.496824"/>
    <poly id="1101540464" type="building" color="255,230,230" fill="1" layer="-1.00" geo="1" shape="126.946985,37.496855 126.947116,37.496854 126.947115,37.496799 126.946985,37.496800 126.946985,37.496855"/>
    <poly id="1101540465" type="building" color="255,230,230" fill="1" layer="-1.00" geo="1" shape="126.946995,37.497073 126.947127,37.497070 126.947122,37.496897 126.946990,37.496899 126.946995,37.497073"/>
    <poly id="1101540466" type="building" color="255,230,230" fill="1" layer="-1.00" geo="1" shape="126.946979,37.497264 126.947112,37.497263 126.947111,37.497178 126.947036,37.497179 126.947036,37.497163 126.946977,37.497164 126.946979,37.497264"/>
    <poly id="1101540467" type="building" color="255,230,230" fill="1" layer="-1.00" geo="1" shape="126.946986,37.497397 126.947120,37.497397 126.947119,37.497302 126.946985,37.497303 126.946986,37.497397"/>
    <poly id="1101540468" type="building" color="255,230,230" fill="1" layer="-1.00" geo="1" shape="126.946968,37.497501 126.946969,37.497434 126.947110,37.497434 126.947109,37.497502 126.946968,37.497501"/>
    <poly id="1101540469" type="building" color="255,230,230" fill="1" layer="-1.00" geo="1" shape="126.946965,37.497579 126.946965,37.497512 126.947106,37.497512 126.947106,37.497579 126.946965,37.497579"/>
    <poly id="1101540470" type="building" color="255,230,230" fill="1" layer="-1.00" geo="1" shape="126.946992,37.497724 126.947120,37.497724 126.947120,37.497618 126.946992,37.497618 126.946992,37.497724"/>
    <poly id="1101540471" type="building" color="255,230,230" fill="1" layer="-1.00" geo="1" shape="126.946976,37.497807 126.946975,37.497740 126.947117,37.497739 126.947117,37.497806 126.946976,37.497807"/>
    <poly id="1101540472" type="building" color="255,230,230" fill="1" layer="-1.00" geo="1" shape="126.946981,37.497908 126.946981,37.497841 126.947122,37.497841 126.947122,37.497908 126.946981,37.497908"/>
    <poly id="1101540473" type="building" color="255,230,230" fill="1" layer="-1.00" geo="1" shape="126.946444,37.497112 126.946444,37.497004 126.946569,37.497003 126.946569,37.497111 126.946444,37.497112"/>
    <poly id="1101540474" type="building" color="255,230,230" fill="1" layer="-1.00" geo="1" shape="126.946439,37.496975 126.946576,37.496973 126.946574,37.496901 126.946516,37.496901 126.946516,37.496913 126.946477,37.496914 126.946438,37.496934 126.946439,37.496975"/>
    <poly id="1101540475" type="building" color="255,230,230" fill="1" layer="-1.00" geo="1" shape="126.946596,37.497613 126.946595,37.497537 126.946748,37.497536 126.946748,37.497613 126.946596,37.497613"/>
    <poly id="1109153406" type="building" color="255,230,230" fill="1" layer="-1.00" geo="1" shape="126.946458,37.497608 126.946571,37.497609 126.946572,37.497524 126.946460,37.497523 126.946458,37.497608"/>
    <poly id="1109153407" type="building" color="255,230,230" fill="1" layer="-1.00" geo="1" shape="126.946464,37.497509 126.946576,37.497508 126.946575,37.497423 126.946462,37.497424 126.946464,37.497509"/>
    <poly id="1109153408" type="building" color="255,230,230" fill="1" layer="-1.00" geo="1" shape="126.946587,37.497512 126.946743,37.497514 126.946744,37.497460 126.946715,37.497460 126.946715,37.497434 126.946588,37.497433 126.946587,37.497512"/>
    <poly id="1109153409" type="building" color="255,230,230" fill="1" layer="-1.00" geo="1" shape="126.946585,37.497293 126.946761,37.497294 126.946761,37.497221 126.946586,37.497221 126.946585,37.497293"/>
    <poly id="1109153410" type="building" color="255,230,230" fill="1" layer="-1.00" geo="1" shape="126.946588,37.497404 126.946764,37.497404 126.946764,37.497331 126.946588,37.497331 126.946588,37.497404"/>
    <poly id="1109153411" type="building" color="255,230,230" fill="1" layer="-1.00" geo="1" shape="126.946459,37.497401 126.946572,37.497400 126.946570,37.497315 126.946458,37.497316 126.946459,37.497401"/>
    <poly id="1109153412" type="building" color="255,230,230" fill="1" layer="-1.00" geo="1" shape="126.946595,37.497177 126.946741,37.497175 126.946739,37.497094 126.946593,37.497096 126.946595,37.497177"/>
    <poly id="1109153413" type="building" color="255,230,230" fill="1" layer="-1.00" geo="1" shape="126.946598,37.497074 126.946751,37.497071 126.946749,37.497010 126.946650,37.497011 126.946649,37.496992 126.946596,37.496993 126.946598,37.497074"/>
    <poly id="1109153414" type="building" color="255,230,230" fill="1" layer="-1.00" geo="1" shape="126.946596,37.496978 126.946753,37.496976 126.946752,37.496886 126.946595,37.496888 126.946596,37.496978"/>
    <poly id="1109939806" type="building" color="255,230,230" fill="1" layer="-1.00" geo="1" shape="126.946549,37.501448 126.946612,37.501348 126.946737,37.501397 126.946720,37.501424 126.946780,37.501447 126.946795,37.501422 126.946899,37.501462 126.946958,37.501368 126.946542,37.501205 126.946422,37.501398 126.946549,37.501448"/>
    <poly id="1109939807" type="building" color="255,230,230" fill="1" layer="-1.00" geo="1" shape="126.946281,37.501058 126.946343,37.500957 126.946469,37.501007 126.946452,37.501033 126.946511,37.501056 126.946527,37.501031 126.946631,37.501072 126.946689,37.500977 126.946273,37.500814 126.946153,37.501008 126.946281,37.501058"/>
    <poly id="1109939809" type="building" color="255,230,230" fill="1" layer="-1.00" geo="1" shape="126.947853,37.500854 126.948053,37.500728 126.948027,37.500701 126.948037,37.500695 126.948013,37.500672 126.947803,37.500805 126.947853,37.500854"/>
    <poly id="1109939813" type="building" color="255,230,230" fill="1" layer="-1.00" geo="1" shape="126.947101,37.501345 126.947163,37.501245 126.947289,37.501294 126.947272,37.501321 126.947332,37.501344 126.947347,37.501319 126.947451,37.501359 126.947510,37.501265 126.947093,37.501102 126.946974,37.501295 126.947101,37.501345"/>
    <poly id="1109939814" type="building" color="255,230,230" fill="1" layer="-1.00" geo="1" shape="126.946840,37.500981 126.946899,37.500885 126.947050,37.500944 126.947034,37.500970 126.947093,37.500993 126.947109,37.500968 126.947213,37.501008 126.947270,37.500914 126.946824,37.500742 126.946709,37.500931 126.946840,37.500981"/>
    <poly id="1109939815" type="building" color="255,230,230" fill="1" layer="-1.00" geo="1" shape="126.946495,37.500561 126.946564,37.500448 126.946714,37.500505 126.946697,37.500531 126.946758,37.500554 126.946773,37.500529 126.946877,37.500568 126.946932,37.500476 126.946501,37.500311 126.946377,37.500517 126.946495,37.500561"/>
    <poly id="1109939816" type="building" color="255,230,230" fill="1" layer="-1.00" geo="1" shape="126.947067,37.500444 126.947119,37.500358 126.947298,37.500427 126.947282,37.500454 126.947343,37.500477 126.947358,37.500452 126.947462,37.500491 126.947519,37.500398 126.947051,37.500218 126.946942,37.500396 126.947067,37.500444"/>
    <poly id="1109939817" type="building" color="255,230,230" fill="1" layer="-1.00" geo="1" shape="126.947378,37.500884 126.947409,37.500830 126.947427,37.500837 126.947455,37.500790 126.947433,37.500782 126.947448,37.500756 126.947571,37.500801 126.947616,37.500724 126.947371,37.500635 126.947253,37.500839 126.947378,37.500884"/>
    <poly id="1109939818" type="building" color="255,230,230" fill="1" layer="-1.00" geo="1" shape="126.946658,37.500044 126.946732,37.499924 126.946971,37.500016 126.946955,37.500043 126.947020,37.500068 126.947040,37.500036 126.947159,37.500082 126.947214,37.499993 126.946668,37.499784 126.946538,37.499998 126.946658,37.500044"/>
    <poly id="1109939820" type="building" color="255,230,230" fill="1" layer="-1.00" geo="1" shape="126.947962,37.500152 126.947835,37.500097 126.947781,37.500176 126.947797,37.500183 126.947756,37.500243 126.947789,37.500257 126.947760,37.500300 126.947728,37.500287 126.947701,37.500328 126.947608,37.500288 126.947704,37.500146 126.947684,37.500137 126.947807,37.499956 126.948030,37.500052 126.947962,37.500152"/>
    <poly id="1114915554" type="building" color="255,230,230" fill="1" layer="-1.00" geo="1" shape="126.948975,37.497052 126.949096,37.497016 126.948994,37.496804 126.949065,37.496839 126.949083,37.496764 126.948949,37.496716 126.948836,37.496744 126.948744,37.496851 126.948815,37.496889 126.948867,37.496827 126.948975,37.497052"/>
    <poly id="1114915555" type="building" color="255,230,230" fill="1" layer="-1.00" geo="1" shape="126.948755,37.496673 126.948852,37.496633 126.948711,37.496419 126.948680,37.496431 126.948659,37.496399 126.948689,37.496366 126.948468,37.496242 126.948393,37.496326 126.948485,37.496378 126.948472,37.496392 126.948512,37.496414 126.948522,37.496402 126.948594,37.496442 126.948667,37.496553 126.948654,37.496558 126.948673,37.496587 126.948693,37.496578 126.948755,37.496673"/>
    <poly id="1119552040" type="amenity" color="237,199,199" fill="1" layer="-1.00" geo="1" shape="126.950584,37.505013 126.950642,37.504809 126.950790,37.504834 126.950751,37.504911 126.950696,37.504972 126.950644,37.505010 126.950620,37.505019 126.950584,37.505013"/>
    <poly id="1119552040#1" type="building" color="255,230,230" fill="1" layer="-1.00" geo="1" shape="126.950584,37.505013 126.950642,37.504809 126.950790,37.504834 126.950751,37.504911 126.950696,37.504972 126.950644,37.505010 126.950620,37.505019 126.950584,37.505013"/>