<!-- 잠실역->아산병원 -->
<routes>
    <!-- 차량 타입 정의 : 일반차량 -->
    <vType id="regular" vClass="passenger" accel="1.0" decel="1.5" maxSpeed="25.0" lcStrategic="1.5" lcSpeedGain="1.5" lcKeepRight="0.0" />
    
    <!-- 일반 차량 설정 -->
    <!-- <flow id="regularFlowA" type="regular" begin="0" end="1000" number="120" from="73591208#0" to="406642246#2" departLane="random"/> -->


    <!-- 차량 타입 정의: 구급차 -->
    <vType id="ambulance" vClass="emergency" accel="2.6" decel="4.5" sigma="0.5" length="5.0" maxSpeed="25" color="1,0,0" lcStrategic="1.5" lcSpeedGain="1.5" lcKeepRight="0.0" />
    
    <!-- 구급차 경로 설정 -->
    <vehicle id="emergency1" type="ambulance" depart="0.00" color="1,0,0" departLane="random">
        <!-- 엣지 ID들을 사용한 경로 설정 -->
        <route edges="913157048#2 -278046400#2 -278046400#1 -278046400#0 919243262 520704308 -220064934#7
        -220064934#6 -220064934#5 -220064934#4 -220064934#3 -220064934#2 -220064934#1 -220064934#0 -520704309#2 -520704309#1
        -520704309#0 -521182520#4 -521182520#3 -521182520#2 -521182520#1 -521182520#0 -521182521#1 -521182521#0 278146427#0 278146427#1
        -521182515 172263024#0 45027298#0 45027298#1 45027298#2 470199635#0 470199635#1
        470199635#2 470199635#3 470199635#4 470199635#5 470199635#6"/>
    </vehicle>
</routes>