<?xml version="1.0" encoding="UTF-8"?>

<!-- generated on 2024-11-18 22:07:32 by Eclipse SUMO netedit Version 1.20.0
<configuration xmlns:xsi="http://www.w3.org/2001/XMLSchema-instance" xsi:noNamespaceSchemaLocation="http://sumo.dlr.de/xsd/neteditConfiguration.xsd">

    <input>
        <sumo-net-file value="D:\Programming\capstone\cauH\map\cauH.net.xml"/>
    </input>

    <output>
        <output-file value="D:\Programming\capstone\cauH\map\cauH.net.xml"/>
    </output>

    <processing>
        <geometry.min-radius.fix.railways value="false"/>
        <geometry.max-grade.fix value="false"/>
        <offset.disable-normalization value="true"/>
        <lefthand value="0"/>
    </processing>

    <junctions>
        <no-turnarounds value="true"/>
        <junctions.corner-detail value="5"/>
        <junctions.limit-turn-speed value="5.50"/>
        <rectangular-lane-cut value="0"/>
    </junctions>

    <pedestrian>
        <walkingareas value="0"/>
    </pedestrian>

</configuration>
-->

<net version="1.20" junctionCornerDetail="5" limitTurnSpeed="5.50" xmlns:xsi="http://www.w3.org/2001/XMLSchema-instance" xsi:noNamespaceSchemaLocation="http://sumo.dlr.de/xsd/net_file.xsd">

    <location netOffset="-318034.61,-4150682.95" convBoundary="0.00,0.00,2047.55,3163.90" origBoundary="126.941290,37.485498,126.964891,37.513703" projParameter="+proj=utm +zone=52 +ellps=WGS84 +datum=WGS84 +units=m +no_defs"/>

    <type id="highway.primary" priority="12" numLanes="2" speed="27.78" disallow="tram rail_urban rail rail_electric rail_fast ship" oneway="0"/>
    <type id="highway.residential" priority="3" numLanes="1" speed="13.89" disallow="tram rail_urban rail rail_electric rail_fast ship" oneway="0"/>
    <type id="highway.secondary" priority="11" numLanes="1" speed="27.78" disallow="tram rail_urban rail rail_electric rail_fast ship" oneway="0"/>
    <type id="highway.secondary_link" priority="6" numLanes="1" speed="22.22" disallow="tram rail_urban rail rail_electric rail_fast ship" oneway="0"/>
    <type id="highway.service" priority="1" numLanes="1" speed="5.56" allow="pedestrian delivery bicycle" oneway="0"/>
    <type id="highway.tertiary" priority="10" numLanes="1" speed="22.22" disallow="tram rail_urban rail rail_electric rail_fast ship" oneway="0"/>

    <edge id=":10127668881_0" function="internal">
        <lane id=":10127668881_0_0" index="0" disallow="tram rail_urban rail rail_electric rail_fast ship" speed="6.73" length="9.41" shape="1176.59,1070.37 1174.19,1069.39 1172.04,1069.37 1170.13,1070.32 1168.47,1072.24"/>
    </edge>
    <edge id=":10127668881_1" function="internal">
        <lane id=":10127668881_1_0" index="0" disallow="tram rail_urban rail rail_electric rail_fast ship" speed="13.89" length="14.65" shape="1176.59,1070.37 1164.05,1062.80"/>
    </edge>
    <edge id=":10127668881_2" function="internal">
        <lane id=":10127668881_2_0" index="0" disallow="tram rail_urban rail rail_electric rail_fast ship" speed="7.91" length="14.39" shape="1176.59,1070.37 1173.48,1067.90 1171.96,1065.06 1172.04,1061.84 1173.72,1058.24"/>
    </edge>
    <edge id=":10127668881_3" function="internal">
        <lane id=":10127668881_3_0" index="0" disallow="tram rail_urban rail rail_electric rail_fast ship" speed="3.65" length="4.67" shape="1176.59,1070.37 1175.96,1069.08 1176.01,1068.18 1176.76,1067.69 1178.20,1067.61"/>
    </edge>
    <edge id=":10127668881_4" function="internal">
        <lane id=":10127668881_4_0" index="0" disallow="tram rail_urban rail rail_electric rail_fast ship" speed="6.40" length="9.04" shape="1176.40,1059.99 1175.35,1062.25 1175.30,1064.27 1176.25,1066.06 1178.20,1067.61"/>
    </edge>
    <edge id=":10127668881_5" function="internal">
        <lane id=":10127668881_5_0" index="0" disallow="tram rail_urban rail rail_electric rail_fast ship" speed="27.78" length="14.59" shape="1176.40,1059.99 1168.47,1072.24"/>
    </edge>
    <edge id=":10127668881_6" function="internal">
        <lane id=":10127668881_6_0" index="0" disallow="tram rail_urban rail rail_electric rail_fast ship" speed="8.11" length="4.11" shape="1176.40,1059.99 1173.79,1062.97 1173.66,1063.04"/>
    </edge>
    <edge id=":10127668881_7" function="internal">
        <lane id=":10127668881_7_0" index="0" disallow="tram rail_urban rail rail_electric rail_fast ship" speed="3.65" length="1.44" shape="1176.40,1059.99 1175.07,1060.55"/>
    </edge>
    <edge id=":10127668881_16" function="internal">
        <lane id=":10127668881_16_0" index="0" disallow="tram rail_urban rail rail_electric rail_fast ship" speed="8.11" length="10.27" shape="1173.66,1063.04 1170.87,1064.43 1167.62,1064.38 1164.05,1062.80"/>
    </edge>
    <edge id=":10127668881_17" function="internal">
        <lane id=":10127668881_17_0" index="0" disallow="tram rail_urban rail rail_electric rail_fast ship" speed="3.65" length="3.23" shape="1175.07,1060.55 1174.19,1060.45 1173.73,1059.68 1173.72,1058.24"/>
    </edge>
    <edge id=":10127668881_8" function="internal">
        <lane id=":10127668881_8_0" index="0" disallow="tram rail_urban rail rail_electric rail_fast ship" speed="6.64" length="9.30" shape="1165.74,1060.09 1168.04,1061.10 1170.14,1061.13 1172.03,1060.17 1173.72,1058.24"/>
    </edge>
    <edge id=":10127668881_9" function="internal">
        <lane id=":10127668881_9_0" index="0" disallow="tram rail_urban rail rail_electric rail_fast ship" speed="13.89" length="14.55" shape="1165.74,1060.09 1178.20,1067.61"/>
    </edge>
    <edge id=":10127668881_10" function="internal">
        <lane id=":10127668881_10_0" index="0" disallow="tram rail_urban rail rail_electric rail_fast ship" speed="7.98" length="14.24" shape="1165.74,1060.09 1168.73,1062.61 1170.18,1065.47 1170.09,1068.68 1168.47,1072.24"/>
    </edge>
    <edge id=":10127668881_11" function="internal">
        <lane id=":10127668881_11_0" index="0" disallow="tram rail_urban rail rail_electric rail_fast ship" speed="3.65" length="4.67" shape="1165.74,1060.09 1166.34,1061.40 1166.25,1062.29 1165.49,1062.76 1164.05,1062.80"/>
    </edge>
    <edge id=":10127668881_12" function="internal">
        <lane id=":10127668881_12_0" index="0" disallow="tram rail_urban rail rail_electric rail_fast ship" speed="6.48" length="9.03" shape="1165.78,1070.51 1166.81,1068.25 1166.86,1066.22 1165.94,1064.40 1164.05,1062.80"/>
    </edge>
    <edge id=":10127668881_13" function="internal">
        <lane id=":10127668881_13_0" index="0" disallow="tram rail_urban rail rail_electric rail_fast ship" speed="27.78" length="14.62" shape="1165.78,1070.51 1173.72,1058.24"/>
    </edge>
    <edge id=":10127668881_14" function="internal">
        <lane id=":10127668881_14_0" index="0" disallow="tram rail_urban rail rail_electric rail_fast ship" speed="8.19" length="4.11" shape="1165.78,1070.51 1168.33,1067.56 1168.51,1067.47"/>
    </edge>
    <edge id=":10127668881_15" function="internal">
        <lane id=":10127668881_15_0" index="0" disallow="tram rail_urban rail rail_electric rail_fast ship" speed="3.65" length="1.44" shape="1165.78,1070.51 1167.10,1069.93"/>
    </edge>
    <edge id=":10127668881_18" function="internal">
        <lane id=":10127668881_18_0" index="0" disallow="tram rail_urban rail rail_electric rail_fast ship" speed="8.19" length="10.31" shape="1168.51,1067.47 1171.25,1066.09 1174.54,1066.11 1178.20,1067.61"/>
    </edge>
    <edge id=":10127668881_19" function="internal">
        <lane id=":10127668881_19_0" index="0" disallow="tram rail_urban rail rail_electric rail_fast ship" speed="3.65" length="3.23" shape="1167.10,1069.93 1167.99,1070.03 1168.45,1070.79 1168.47,1072.24"/>
    </edge>
    <edge id=":10232790207_0" function="internal">
        <lane id=":10232790207_0_0" index="0" allow="emergency pedestrian delivery bicycle" speed="3.65" length="4.67" shape="1632.60,2312.43 1632.84,2311.01 1633.40,2310.31 1634.29,2310.35 1635.52,2311.11"/>
    </edge>
    <edge id=":10239817432_0" function="internal">
        <lane id=":10239817432_0_0" index="0" disallow="tram rail_urban rail rail_electric rail_fast ship" speed="6.28" length="3.84" shape="808.84,2166.50 808.20,2166.92 807.63,2167.57 807.13,2168.45 806.72,2169.58"/>
    </edge>
    <edge id=":10239817432_1" function="internal">
        <lane id=":10239817432_1_0" index="0" disallow="tram rail_urban rail rail_electric rail_fast ship" speed="13.89" length="4.94" shape="807.85,2164.77 807.61,2166.22 807.40,2167.20 807.14,2168.17 806.72,2169.58"/>
    </edge>
    <edge id=":10239817444_0" function="internal">
        <lane id=":10239817444_0_0" index="0" disallow="tram rail_urban rail rail_electric rail_fast ship" speed="9.37" length="7.15" shape="859.34,2326.19 857.96,2327.66 857.43,2328.99 857.30,2330.54 857.13,2332.67"/>
    </edge>
    <edge id=":10239817444_1" function="internal">
        <lane id=":10239817444_1_0" index="0" disallow="tram rail_urban rail rail_electric rail_fast ship" speed="13.89" length="7.50" shape="859.34,2326.19 857.65,2327.64 856.44,2328.59 855.12,2329.34 853.07,2330.19"/>
    </edge>
    <edge id=":10239817451_0" function="internal">
        <lane id=":10239817451_0_0" index="0" disallow="tram rail_urban rail rail_electric rail_fast ship" speed="10.07" length="8.90" shape="843.35,2337.53 841.50,2335.66 840.01,2334.54 838.28,2333.96 835.71,2333.74"/>
    </edge>
    <edge id=":10239817451_1" function="internal">
        <lane id=":10239817451_1_0" index="0" disallow="tram rail_urban rail rail_electric rail_fast ship" speed="13.89" length="8.87" shape="844.49,2333.20 841.95,2333.83 840.16,2333.99 838.34,2333.89 835.71,2333.74"/>
    </edge>
    <edge id=":10239817452_0" function="internal">
        <lane id=":10239817452_0_0" index="0" disallow="tram rail_urban rail rail_electric rail_fast ship" speed="13.89" length="6.18" shape="807.41,2157.47 808.00,2159.20 808.52,2160.35 809.13,2161.45 810.00,2163.06"/>
    </edge>
    <edge id=":10239817452_1" function="internal">
        <lane id=":10239817452_1_0" index="0" disallow="tram rail_urban rail rail_electric rail_fast ship" speed="13.89" length="7.24" shape="807.41,2157.47 808.02,2159.52 808.27,2160.98 808.21,2162.46 807.89,2164.58"/>
    </edge>
    <edge id=":10239817455_0" function="internal">
        <lane id=":10239817455_0_0" index="0" disallow="tram rail_urban rail rail_electric rail_fast ship" speed="13.89" length="1.43" shape="812.80,2168.96 812.72,2170.38"/>
    </edge>
    <edge id=":10239817455_1" function="internal">
        <lane id=":10239817455_1_0" index="0" disallow="tram rail_urban rail rail_electric rail_fast ship" speed="8.17" length="3.07" shape="812.28,2167.41 812.65,2168.23 812.79,2168.83 812.78,2169.47 812.72,2170.38"/>
    </edge>
    <edge id=":10239817456_0" function="internal">
        <lane id=":10239817456_0_0" index="0" disallow="tram rail_urban rail rail_electric rail_fast ship" speed="4.07" length="3.04" shape="812.92,2164.71 812.25,2165.15 811.90,2165.71 811.88,2166.41 812.18,2167.24"/>
    </edge>
    <edge id=":10239817456_1" function="internal">
        <lane id=":10239817456_1_0" index="0" disallow="tram rail_urban rail rail_electric rail_fast ship" speed="13.89" length="4.25" shape="812.92,2164.71 809.03,2166.42"/>
    </edge>
    <edge id=":10239817456_2" function="internal">
        <lane id=":10239817456_2_0" index="0" disallow="tram rail_urban rail rail_electric rail_fast ship" speed="13.89" length="4.51" shape="810.10,2163.24 812.18,2167.24"/>
    </edge>
    <edge id=":10239817456_3" function="internal">
        <lane id=":10239817456_3_0" index="0" disallow="tram rail_urban rail rail_electric rail_fast ship" speed="4.46" length="0.82" shape="810.10,2163.24 810.37,2164.02"/>
    </edge>
    <edge id=":10239817456_4" function="internal">
        <lane id=":10239817456_4_0" index="0" disallow="tram rail_urban rail rail_electric rail_fast ship" speed="4.46" length="3.06" shape="810.37,2164.02 810.46,2164.27 810.41,2165.14 809.93,2165.86 809.03,2166.42"/>
    </edge>
    <edge id=":10239817464_0" function="internal">
        <lane id=":10239817464_0_0" index="0" disallow="tram rail_urban rail rail_electric rail_fast ship" speed="16.37" length="9.48" shape="754.43,2117.63 756.52,2119.41 758.26,2120.20 760.20,2120.67 762.93,2121.44"/>
    </edge>
    <edge id=":10239817464_1" function="internal">
        <lane id=":10239817464_1_0" index="0" disallow="tram rail_urban rail rail_electric rail_fast ship" speed="27.78" length="9.58" shape="754.43,2117.63 756.48,2119.61 757.89,2120.98 759.08,2122.51 760.48,2124.96"/>
    </edge>
    <edge id=":10239817468_0" function="internal">
        <lane id=":10239817468_0_0" index="0" disallow="tram rail_urban rail rail_electric rail_fast ship" speed="20.84" length="16.96" shape="734.01,2120.68 732.12,2117.65 730.25,2114.55 728.22,2110.81 725.81,2105.84"/>
    </edge>
    <edge id=":10239817468_1" function="internal">
        <lane id=":10239817468_1_0" index="0" disallow="tram rail_urban rail rail_electric rail_fast ship" speed="20.94" length="16.54" shape="737.65,2118.02 733.47,2115.01 730.55,2112.88 728.22,2110.27 725.81,2105.84"/>
        <lane id=":10239817468_1_1" index="1" disallow="tram rail_urban rail rail_electric rail_fast ship" speed="20.00" length="16.54" shape="739.61,2115.49 735.78,2112.77 733.08,2110.86 730.93,2108.52 728.72,2104.50"/>
    </edge>
    <edge id=":10701233221_0" function="internal">
        <lane id=":10701233221_0_0" index="0" allow="pedestrian delivery bicycle" speed="3.65" length="4.67" shape="1337.88,412.27 1338.70,411.08 1339.50,410.69 1340.30,411.10 1341.08,412.31"/>
    </edge>
    <edge id=":10701233223_0" function="internal">
        <lane id=":10701233223_0_0" index="0" allow="pedestrian delivery bicycle" speed="3.65" length="4.67" shape="1319.81,461.80 1318.54,462.48 1317.64,462.47 1317.12,461.74 1316.97,460.30"/>
    </edge>
    <edge id=":1829429057_0" function="internal">
        <lane id=":1829429057_0_0" index="0" disallow="tram rail_urban rail rail_electric rail_fast ship" speed="3.65" length="4.67" shape="373.41,2089.13 372.35,2088.15 372.08,2087.30 372.60,2086.57 373.91,2085.97"/>
    </edge>
    <edge id=":1831853297_0" function="internal">
        <lane id=":1831853297_0_0" index="0" disallow="tram rail_urban rail rail_electric rail_fast ship" speed="13.89" length="0.10" shape="741.70,2164.89 741.70,2164.89"/>
    </edge>
    <edge id=":1831853301_0" function="internal">
        <lane id=":1831853301_0_0" index="0" disallow="tram rail_urban rail rail_electric rail_fast ship" speed="20.84" length="16.95" shape="805.77,2204.39 806.69,2208.35 807.67,2212.68 808.82,2216.94 810.26,2220.71"/>
    </edge>
    <edge id=":1831853301_1" function="internal">
        <lane id=":1831853301_1_0" index="0" disallow="tram rail_urban rail rail_electric rail_fast ship" speed="27.78" length="16.95" shape="802.48,2205.65 810.26,2220.71"/>
    </edge>
    <edge id=":1831853315_0" function="internal">
        <lane id=":1831853315_0_0" index="0" disallow="tram rail_urban rail rail_electric rail_fast ship" speed="13.89" length="0.10" shape="847.75,2332.24 847.75,2332.24"/>
    </edge>
    <edge id=":1831853316_0" function="internal">
        <lane id=":1831853316_0_0" index="0" disallow="tram rail_urban rail rail_electric rail_fast ship" speed="22.22" length="10.54" shape="799.51,2146.06 808.53,2151.50"/>
    </edge>
    <edge id=":1831853316_1" function="internal">
        <lane id=":1831853316_1_0" index="0" disallow="tram rail_urban rail rail_electric rail_fast ship" speed="18.05" length="10.56" shape="799.51,2146.06 801.84,2147.97 803.20,2149.70 804.33,2151.66 805.97,2154.27"/>
    </edge>
    <edge id=":1831853318_0" function="internal">
        <lane id=":1831853318_0_0" index="0" disallow="tram rail_urban rail rail_electric rail_fast ship" speed="7.89" length="7.28" shape="816.47,2162.80 814.91,2164.05 813.78,2165.46 813.08,2167.03 812.81,2168.76"/>
    </edge>
    <edge id=":1831853318_1" function="internal">
        <lane id=":1831853318_1_0" index="0" disallow="tram rail_urban rail rail_electric rail_fast ship" speed="13.89" length="3.84" shape="816.47,2162.80 815.52,2163.42 814.85,2163.82 814.15,2164.17 813.11,2164.63"/>
    </edge>
    <edge id=":1831853331_0" function="internal">
        <lane id=":1831853331_0_0" index="0" disallow="tram rail_urban rail rail_electric rail_fast ship" speed="27.78" length="0.23" shape="851.28,2306.05 851.38,2306.26"/>
    </edge>
    <edge id=":1872054361_0" function="internal">
        <lane id=":1872054361_0_0" index="0" disallow="tram rail_urban rail rail_electric rail_fast ship" speed="3.65" length="4.67" shape="194.41,757.08 193.20,756.30 192.79,755.50 193.18,754.70 194.37,753.88"/>
    </edge>
    <edge id=":1872054413_0" function="internal">
        <lane id=":1872054413_0_0" index="0" disallow="tram rail_urban rail rail_electric rail_fast ship" speed="27.78" length="13.01" shape="1048.83,516.06 1045.40,516.20 1042.35,516.53 1039.33,517.07 1035.99,517.87"/>
    </edge>
    <edge id=":1872054413_1" function="internal">
        <lane id=":1872054413_1_0" index="0" disallow="tram rail_urban rail rail_electric rail_fast ship" speed="8.49" length="3.66" shape="1048.83,516.06 1045.31,515.62 1045.21,515.57"/>
    </edge>
    <edge id=":1872054413_2" function="internal">
        <lane id=":1872054413_2_0" index="0" disallow="tram rail_urban rail rail_electric rail_fast ship" speed="3.65" length="1.44" shape="1048.83,516.06 1047.62,515.28"/>
    </edge>
    <edge id=":1872054413_9" function="internal">
        <lane id=":1872054413_9_0" index="0" disallow="tram rail_urban rail rail_electric rail_fast ship" speed="8.49" length="9.98" shape="1045.21,515.57 1042.54,514.15 1040.52,511.66 1039.25,508.14"/>
    </edge>
    <edge id=":1872054413_10" function="internal">
        <lane id=":1872054413_10_0" index="0" disallow="tram rail_urban rail rail_electric rail_fast ship" speed="3.65" length="3.23" shape="1047.62,515.28 1047.20,514.49 1047.58,513.68 1048.77,512.86"/>
    </edge>
    <edge id=":1872054413_3" function="internal">
        <lane id=":1872054413_3_0" index="0" disallow="tram rail_urban rail rail_electric rail_fast ship" speed="7.07" length="9.19" shape="1042.37,507.44 1043.23,509.85 1044.58,511.55 1046.43,512.55 1048.77,512.86"/>
    </edge>
    <edge id=":1872054413_4" function="internal">
        <lane id=":1872054413_4_0" index="0" disallow="tram rail_urban rail rail_electric rail_fast ship" speed="8.01" length="13.84" shape="1042.37,507.44 1042.66,511.21 1041.70,514.20 1039.47,516.42 1035.99,517.87"/>
    </edge>
    <edge id=":1872054413_5" function="internal">
        <lane id=":1872054413_5_0" index="0" disallow="tram rail_urban rail rail_electric rail_fast ship" speed="3.65" length="4.67" shape="1042.37,507.44 1041.85,508.79 1041.16,509.35 1040.29,509.14 1039.25,508.14"/>
    </edge>
    <edge id=":1872054413_6" function="internal">
        <lane id=":1872054413_6_0" index="0" disallow="tram rail_urban rail rail_electric rail_fast ship" speed="6.51" length="8.81" shape="1035.19,514.78 1037.40,513.85 1038.82,512.44 1039.43,510.53 1039.25,508.14"/>
    </edge>
    <edge id=":1872054413_7" function="internal">
        <lane id=":1872054413_7_0" index="0" disallow="tram rail_urban rail rail_electric rail_fast ship" speed="27.78" length="13.75" shape="1035.19,514.78 1038.65,513.96 1041.92,513.38 1045.22,513.02 1048.77,512.86"/>
    </edge>
    <edge id=":1872054413_8" function="internal">
        <lane id=":1872054413_8_0" index="0" disallow="tram rail_urban rail rail_electric rail_fast ship" speed="3.65" length="1.44" shape="1035.19,514.78 1036.55,515.25"/>
    </edge>
    <edge id=":1872054413_11" function="internal">
        <lane id=":1872054413_11_0" index="0" disallow="tram rail_urban rail rail_electric rail_fast ship" speed="3.65" length="3.23" shape="1036.55,515.25 1037.14,515.92 1036.95,516.80 1035.99,517.87"/>
    </edge>
    <edge id=":1872054441_0" function="internal">
        <lane id=":1872054441_0_0" index="0" disallow="tram rail_urban rail rail_electric rail_fast ship" speed="27.78" length="12.78" shape="457.93,826.84 455.52,829.25 453.52,831.46 451.65,833.80 449.66,836.55"/>
    </edge>
    <edge id=":1872054441_1" function="internal">
        <lane id=":1872054441_1_0" index="0" disallow="tram rail_urban rail rail_electric rail_fast ship" speed="8.02" length="3.75" shape="457.93,826.84 455.02,828.96 454.87,829.00"/>
    </edge>
    <edge id=":1872054441_2" function="internal">
        <lane id=":1872054441_2_0" index="0" disallow="tram rail_urban rail rail_electric rail_fast ship" speed="3.65" length="1.44" shape="457.93,826.84 456.51,827.10"/>
    </edge>
    <edge id=":1872054441_9" function="internal">
        <lane id=":1872054441_9_0" index="0" disallow="tram rail_urban rail rail_electric rail_fast ship" speed="8.02" length="9.53" shape="454.87,829.00 452.07,829.73 449.09,829.14 446.06,827.19"/>
    </edge>
    <edge id=":1872054441_10" function="internal">
        <lane id=":1872054441_10_0" index="0" disallow="tram rail_urban rail rail_electric rail_fast ship" speed="3.65" length="3.23" shape="456.51,827.10 455.66,826.80 455.39,825.95 455.70,824.54"/>
    </edge>
    <edge id=":1872054441_3" function="internal">
        <lane id=":1872054441_3_0" index="0" disallow="tram rail_urban rail rail_electric rail_fast ship" speed="6.52" length="8.45" shape="448.15,824.77 450.07,826.00 451.97,826.38 453.85,825.89 455.70,824.54"/>
    </edge>
    <edge id=":1872054441_4" function="internal">
        <lane id=":1872054441_4_0" index="0" disallow="tram rail_urban rail rail_electric rail_fast ship" speed="8.05" length="13.27" shape="448.15,824.77 450.52,827.47 451.57,830.33 451.28,833.36 449.66,836.55"/>
    </edge>
    <edge id=":1872054441_5" function="internal">
        <lane id=":1872054441_5_0" index="0" disallow="tram rail_urban rail rail_electric rail_fast ship" speed="3.65" length="4.67" shape="448.15,824.77 448.54,826.16 448.32,827.02 447.49,827.37 446.06,827.19"/>
    </edge>
    <edge id=":1872054441_6" function="internal">
        <lane id=":1872054441_6_0" index="0" disallow="tram rail_urban rail rail_electric rail_fast ship" speed="6.56" length="8.48" shape="447.03,834.72 448.07,832.68 448.25,830.75 447.58,828.92 446.06,827.19"/>
    </edge>
    <edge id=":1872054441_7" function="internal">
        <lane id=":1872054441_7_0" index="0" disallow="tram rail_urban rail rail_electric rail_fast ship" speed="27.78" length="13.39" shape="447.03,834.72 449.09,831.89 451.09,829.40 453.23,827.02 455.70,824.54"/>
    </edge>
    <edge id=":1872054441_8" function="internal">
        <lane id=":1872054441_8_0" index="0" disallow="tram rail_urban rail rail_electric rail_fast ship" speed="3.65" length="1.44" shape="447.03,834.72 448.38,834.20"/>
    </edge>
    <edge id=":1872054441_11" function="internal">
        <lane id=":1872054441_11_0" index="0" disallow="tram rail_urban rail rail_electric rail_fast ship" speed="3.65" length="3.23" shape="448.38,834.20 449.26,834.33 449.69,835.11 449.66,836.55"/>
    </edge>
    <edge id=":1872054473_0" function="internal">
        <lane id=":1872054473_0_0" index="0" disallow="tram rail_urban rail rail_electric rail_fast ship" speed="7.18" length="9.83" shape="650.31,782.01 648.78,779.62 646.95,778.13 644.83,777.55 642.41,777.87"/>
    </edge>
    <edge id=":1872054473_1" function="internal">
        <lane id=":1872054473_1_0" index="0" disallow="tram rail_urban rail rail_electric rail_fast ship" speed="7.77" length="14.75" shape="650.31,782.01 649.05,778.08 649.45,774.85 651.50,772.33 655.20,770.51"/>
    </edge>
    <edge id=":1872054473_2" function="internal">
        <lane id=":1872054473_2_0" index="0" disallow="tram rail_urban rail rail_electric rail_fast ship" speed="3.65" length="4.67" shape="650.31,782.01 650.51,780.58 651.05,779.87 651.94,779.88 653.19,780.61"/>
    </edge>
    <edge id=":1872054473_3" function="internal">
        <lane id=":1872054473_3_0" index="0" disallow="tram rail_urban rail rail_electric rail_fast ship" speed="6.23" length="9.05" shape="656.19,773.55 653.92,774.67 652.66,776.22 652.42,778.20 653.19,780.61"/>
    </edge>
    <edge id=":1872054473_4" function="internal">
        <lane id=":1872054473_4_0" index="0" disallow="tram rail_urban rail rail_electric rail_fast ship" speed="27.78" length="14.44" shape="656.19,773.55 642.41,777.87"/>
    </edge>
    <edge id=":1872054473_5" function="internal">
        <lane id=":1872054473_5_0" index="0" disallow="tram rail_urban rail rail_electric rail_fast ship" speed="3.65" length="1.44" shape="656.19,773.55 654.80,773.16"/>
    </edge>
    <edge id=":1872054473_9" function="internal">
        <lane id=":1872054473_9_0" index="0" disallow="tram rail_urban rail rail_electric rail_fast ship" speed="3.65" length="3.23" shape="654.80,773.16 654.17,772.52 654.31,771.64 655.20,770.51"/>
    </edge>
    <edge id=":1872054473_6" function="internal">
        <lane id=":1872054473_6_0" index="0" disallow="tram rail_urban rail rail_electric rail_fast ship" speed="27.78" length="14.37" shape="641.49,774.80 655.20,770.51"/>
    </edge>
    <edge id=":1872054473_7" function="internal">
        <lane id=":1872054473_7_0" index="0" disallow="tram rail_urban rail rail_electric rail_fast ship" speed="8.57" length="3.67" shape="641.49,774.80 645.13,774.29"/>
    </edge>
    <edge id=":1872054473_8" function="internal">
        <lane id=":1872054473_8_0" index="0" disallow="tram rail_urban rail rail_electric rail_fast ship" speed="3.65" length="1.44" shape="641.49,774.80 642.87,775.22"/>
    </edge>
    <edge id=":1872054473_10" function="internal">
        <lane id=":1872054473_10_0" index="0" disallow="tram rail_urban rail rail_electric rail_fast ship" speed="8.57" length="10.74" shape="645.13,774.29 648.29,775.09 650.97,777.19 653.19,780.61"/>
    </edge>
    <edge id=":1872054473_11" function="internal">
        <lane id=":1872054473_11_0" index="0" disallow="tram rail_urban rail rail_electric rail_fast ship" speed="3.65" length="3.23" shape="642.87,775.22 643.48,775.87 643.33,776.76 642.41,777.87"/>
    </edge>
    <edge id=":1872054485_0" function="internal">
        <lane id=":1872054485_0_0" index="0" disallow="tram rail_urban rail rail_electric rail_fast ship" speed="27.78" length="14.57" shape="1304.87,606.92 1299.98,620.65"/>
    </edge>
    <edge id=":1872054485_1" function="internal">
        <lane id=":1872054485_1_0" index="0" disallow="tram rail_urban rail rail_electric rail_fast ship" speed="8.15" length="3.66" shape="1304.87,606.92 1302.98,610.06"/>
    </edge>
    <edge id=":1872054485_2" function="internal">
        <lane id=":1872054485_2_0" index="0" disallow="tram rail_urban rail rail_electric rail_fast ship" speed="3.66" length="1.45" shape="1304.87,606.92 1303.74,607.83"/>
    </edge>
    <edge id=":1872054485_9" function="internal">
        <lane id=":1872054485_9_0" index="0" disallow="tram rail_urban rail rail_electric rail_fast ship" speed="8.15" length="10.60" shape="1302.98,610.06 1302.79,610.38 1300.18,612.41 1297.05,613.03 1293.40,612.23"/>
    </edge>
    <edge id=":1872054485_10" function="internal">
        <lane id=":1872054485_10_0" index="0" disallow="tram rail_urban rail rail_electric rail_fast ship" speed="3.66" length="3.25" shape="1303.74,607.83 1302.85,607.97 1302.21,607.34 1301.81,605.94"/>
    </edge>
    <edge id=":1872054485_3" function="internal">
        <lane id=":1872054485_3_0" index="0" disallow="tram rail_urban rail rail_electric rail_fast ship" speed="6.60" length="8.99" shape="1294.56,609.24 1296.87,609.75 1298.85,609.38 1300.50,608.11 1301.81,605.94"/>
    </edge>
    <edge id=":1872054485_4" function="internal">
        <lane id=":1872054485_4_0" index="0" disallow="tram rail_urban rail rail_electric rail_fast ship" speed="8.11" length="14.32" shape="1294.56,609.24 1298.03,611.16 1300.09,613.71 1300.74,616.87 1299.98,620.65"/>
    </edge>
    <edge id=":1872054485_5" function="internal">
        <lane id=":1872054485_5_0" index="0" disallow="tram rail_urban rail rail_electric rail_fast ship" speed="3.65" length="4.67" shape="1294.56,609.24 1295.39,610.42 1295.47,611.31 1294.81,611.91 1293.40,612.23"/>
    </edge>
    <edge id=":1872054485_6" function="internal">
        <lane id=":1872054485_6_0" index="0" disallow="tram rail_urban rail rail_electric rail_fast ship" speed="6.63" length="9.25" shape="1296.96,619.56 1297.45,617.14 1297.01,615.11 1295.67,613.47 1293.40,612.23"/>
    </edge>
    <edge id=":1872054485_7" function="internal">
        <lane id=":1872054485_7_0" index="0" disallow="tram rail_urban rail rail_electric rail_fast ship" speed="27.78" length="14.46" shape="1296.96,619.56 1301.81,605.94"/>
    </edge>
    <edge id=":1872054485_8" function="internal">
        <lane id=":1872054485_8_0" index="0" disallow="tram rail_urban rail rail_electric rail_fast ship" speed="3.65" length="1.44" shape="1296.96,619.56 1298.12,618.70"/>
    </edge>
    <edge id=":1872054485_11" function="internal">
        <lane id=":1872054485_11_0" index="0" disallow="tram rail_urban rail rail_electric rail_fast ship" speed="3.65" length="3.23" shape="1298.12,618.70 1299.01,618.60 1299.63,619.25 1299.98,620.65"/>
    </edge>
    <edge id=":2110270451_0" function="internal">
        <lane id=":2110270451_0_0" index="0" disallow="tram rail_urban rail rail_electric rail_fast ship" speed="3.65" length="4.67" shape="8.67,2221.98 9.61,2220.89 10.46,2220.59 11.20,2221.09 11.85,2222.38"/>
    </edge>
    <edge id=":2161099527_0" function="internal">
        <lane id=":2161099527_0_0" index="0" disallow="tram rail_urban rail rail_electric rail_fast ship" speed="13.89" length="0.25" shape="1038.77,506.02 1038.76,505.94 1038.74,505.89 1038.73,505.84 1038.70,505.77"/>
    </edge>
    <edge id=":2161099527_1" function="internal">