<?xml version="1.0" encoding="UTF-8"?>

<!-- generated on 2024-12-06 19:06:48 by Eclipse SUMO netedit Version 1.20.0
-->

<routes xmlns:xsi="http://www.w3.org/2001/XMLSchema-instance" xsi:noNamespaceSchemaLocation="http://sumo.dlr.de/xsd/routes_file.xsd">
    <!-- VTypes -->
    <vType id="regular" vClass="passenger" accel="1.0" decel="1.5" maxSpeed="15.0" lcStrategic="10" lcSpeedGain="10" lcKeepRight="-20" />
    <vType id="ambulance" vClass="emergency" accel="2.6" decel="4.5" sigma="0.5" length="5.0" maxSpeed="20" color="1,0,0" lcStrategic="0" lcSpeedGain="1" lcKeepRight="0" />

    <!-- Vehicles, persons and containers (sorted by depart) -->
    <flow id="regularFlowA" type="regular" begin="0" end="600" number="250" from="59097493" to="406642246#2" departLane="random"/> <!--올림픽대로-->
    <flow id="regularFlowB" type="regular" begin="0" end="600" number="60" from="867821853#0" to="909315384#1" departLane="random"/> <!--송파대로(잠실역) -> 강동대로-->
    <flow id="regularFlowC" type="regular" begin="0" end="600" number="70" from="844484889" to="1193259448" departLane="random"/> <!--송파대로(잠실역) -> 올림픽대로-->
    <flow id="regularFlowD" type="regular" begin="0" end="600" number="40" from="59097490" to="87646561" departLane="random"/> <!-- 올림픽대로 -> 한가람로-->
    
    <flow id="regularFlowE" type="regular" begin="0" end="600" number="100" from="65108194" to="70998378#1" departLane="random"/> <!--올림픽대로-->
    <flow id="regularFlowF" type="regular" begin="0" end="600" number="60" from="909315382#1" to="-59097446#2" departLane="random"/> <!--올림픽대로-->
    <flow id="regularFlowG" type="regular" begin="0" end="600" number="80" from="218899424" to="406642246#1" departLane="random"/> <!--송파대로 -> 올림픽대로 -->

    <vehicle id="emergency1" type="ambulance" depart="0.00" departLane="random">
    	<param key="color" value="255,0,0"/>
        <route edges="218855790#1 908608594 844484889 908608597 218899424 1192416061 59097471 975305196#0 975305196#1 59097494 65108194 406642246#0 1028447863 65112827 1028447539 909315384#0 -856525750"/>
    </vehicle>
</routes>
