<?xml version="1.0" encoding="UTF-8"?>

<!-- generated on 2024-11-01 14:49:24 by Eclipse SUMO netconvert Version 1.20.0
<configuration xmlns:xsi="http://www.w3.org/2001/XMLSchema-instance" xsi:noNamespaceSchemaLocation="http://sumo.dlr.de/xsd/netconvertConfiguration.xsd">

    <input>
        <osm-files value="asanH.osm"/>
    </input>

    <output>
        <output-file value="asanH2.net.xml"/>
    </output>

    <projection>
        <proj.utm value="true"/>
    </projection>

    <processing>
        <geometry.max-grade.fix value="true"/>
    </processing>

    <tls_building>
        <tls.guess value="true"/>
        <tls.join value="true"/>
    </tls_building>

</configuration>
-->

<net version="1.20" junctionCornerDetail="5" limitTurnSpeed="5.50" xmlns:xsi="http://www.w3.org/2001/XMLSchema-instance" xsi:noNamespaceSchemaLocation="http://sumo.dlr.de/xsd/net_file.xsd">

    <location netOffset="-330799.48,-4152722.99" convBoundary="0.00,0.00,2958.47,3586.38" origBoundary="127.085549,37.506327,127.119022,37.538748" projParameter="+proj=utm +zone=52 +ellps=WGS84 +datum=WGS84 +units=m +no_defs"/>

    <type id="highway.primary" priority="12" numLanes="2" speed="27.78" disallow="tram rail_urban rail rail_electric rail_fast ship container cable_car subway aircraft wheelchair scooter drone" oneway="0"/>
    <type id="highway.residential" priority="3" numLanes="1" speed="13.89" disallow="tram rail_urban rail rail_electric rail_fast ship container cable_car subway aircraft wheelchair scooter drone" oneway="0"/>
    <type id="highway.secondary" priority="11" numLanes="1" speed="27.78" disallow="tram rail_urban rail rail_electric rail_fast ship container cable_car subway aircraft wheelchair scooter drone" oneway="0"/>
    <type id="highway.secondary_link" priority="6" numLanes="1" speed="22.22" disallow="tram rail_urban rail rail_electric rail_fast ship container cable_car subway aircraft wheelchair scooter drone" oneway="0"/>
    <type id="highway.service" priority="1" numLanes="1" speed="5.56" allow="pedestrian delivery bicycle" oneway="0"/>
    <type id="highway.tertiary" priority="10" numLanes="1" speed="22.22" disallow="tram rail_urban rail rail_electric rail_fast ship container cable_car subway aircraft wheelchair scooter drone" oneway="0"/>
    <type id="highway.tertiary_link" priority="5" numLanes="1" speed="22.22" disallow="tram rail_urban rail rail_electric rail_fast ship container cable_car subway aircraft wheelchair scooter drone" oneway="0"/>
    <type id="highway.trunk" priority="13" numLanes="2" speed="27.78" disallow="pedestrian bicycle tram rail_urban rail rail_electric rail_fast ship container cable_car subway aircraft wheelchair scooter drone" oneway="0"/>
    <type id="highway.trunk_link" priority="8" numLanes="1" speed="22.22" disallow="pedestrian bicycle tram rail_urban rail rail_electric rail_fast ship container cable_car subway aircraft wheelchair scooter drone" oneway="0"/>
    <type id="highway.unclassified" priority="4" numLanes="1" speed="13.89" disallow="tram rail_urban rail rail_electric rail_fast ship container cable_car subway aircraft wheelchair scooter drone" oneway="0"/>

    <edge id=":10833087501_0" function="internal">
        <lane id=":10833087501_0_0" index="0" disallow="tram rail_urban rail rail_electric rail_fast ship container cable_car subway aircraft wheelchair scooter drone" speed="27.78" length="8.69" shape="1761.07,1303.21 1759.65,1305.06 1757.72,1305.62 1755.79,1306.17 1754.36,1308.02"/>
    </edge>
    <edge id=":10833087501_1" function="internal">
        <lane id=":10833087501_1_0" index="0" disallow="tram rail_urban rail rail_electric rail_fast ship container cable_car subway aircraft wheelchair scooter drone" speed="3.65" length="4.67" shape="1758.04,1302.18 1756.90,1303.06 1756.01,1303.18 1755.38,1302.54 1755.01,1301.15"/>
    </edge>
    <edge id=":10833087501_2" function="internal">
        <lane id=":10833087501_2_0" index="0" disallow="tram rail_urban rail rail_electric rail_fast ship container cable_car subway aircraft wheelchair scooter drone" speed="6.66" length="6.57" shape="1747.10,1303.90 1748.79,1303.56 1750.17,1302.82 1751.23,1301.67 1751.98,1300.12"/>
        <lane id=":10833087501_2_1" index="1" disallow="tram rail_urban rail rail_electric rail_fast ship container cable_car subway aircraft wheelchair scooter drone" speed="7.56" length="8.68" shape="1747.10,1303.90 1750.28,1303.53 1752.66,1302.94 1754.23,1302.15 1755.01,1301.15"/>
    </edge>
    <edge id=":10833087501_4" function="internal">
        <lane id=":10833087501_4_0" index="0" disallow="tram rail_urban rail rail_electric rail_fast ship container cable_car subway aircraft wheelchair scooter drone" speed="6.10" length="10.21" shape="1747.10,1303.90 1750.89,1303.91 1753.36,1304.59 1754.52,1305.97 1754.36,1308.02"/>
    </edge>
    <edge id=":10833309605_0" function="internal">
        <lane id=":10833309605_0_0" index="0" disallow="tram rail_urban rail rail_electric rail_fast ship container cable_car subway aircraft wheelchair scooter drone" speed="3.65" length="4.67" shape="1728.16,1247.14 1728.89,1245.90 1729.67,1245.46 1730.49,1245.81 1731.36,1246.96"/>
    </edge>
    <edge id=":10833309607_0" function="internal">
        <lane id=":10833309607_0_0" index="0" disallow="tram rail_urban rail rail_electric rail_fast ship container cable_car subway aircraft wheelchair scooter drone" speed="27.78" length="0.30" shape="1730.39,1386.76 1730.33,1387.05"/>
    </edge>
    <edge id=":10833309608_0" function="internal">
        <lane id=":10833309608_0_0" index="0" disallow="tram rail_urban rail rail_electric rail_fast ship container cable_car subway aircraft wheelchair scooter drone" speed="27.78" length="0.10" shape="1712.67,1381.80 1712.67,1381.80"/>
    </edge>
    <edge id=":10833309621_0" function="internal">
        <lane id=":10833309621_0_0" index="0" disallow="tram rail_urban rail rail_electric rail_fast ship container cable_car subway aircraft wheelchair scooter drone" speed="27.78" length="0.28" shape="1737.80,1359.48 1737.71,1359.75"/>
    </edge>
    <edge id=":10833309622_0" function="internal">
        <lane id=":10833309622_0_0" index="0" disallow="tram rail_urban rail rail_electric rail_fast ship container cable_car subway aircraft wheelchair scooter drone" speed="27.78" length="0.10" shape="1718.45,1357.34 1718.45,1357.34"/>
    </edge>
    <edge id=":10833309624_0" function="internal">
        <lane id=":10833309624_0_0" index="0" disallow="tram rail_urban rail rail_electric rail_fast ship container cable_car subway aircraft wheelchair scooter drone" speed="22.22" length="0.10" shape="1750.01,1381.43 1750.01,1381.43"/>
    </edge>
    <edge id=":10833309624_1" function="internal">
        <lane id=":10833309624_1_0" index="0" disallow="tram rail_urban rail rail_electric rail_fast ship container cable_car subway aircraft wheelchair scooter drone" speed="22.22" length="0.10" shape="1751.00,1378.39 1751.01,1378.39"/>
    </edge>
    <edge id=":10833309627_0" function="internal">
        <lane id=":10833309627_0_0" index="0" disallow="tram rail_urban rail rail_electric rail_fast ship container cable_car subway aircraft wheelchair scooter drone" speed="9.82" length="7.77" shape="1715.85,1351.05 1717.78,1349.76 1719.19,1348.82 1720.18,1347.62 1720.86,1345.53"/>
    </edge>
    <edge id=":10833309627_1" function="internal">
        <lane id=":10833309627_1_0" index="0" disallow="tram rail_urban rail rail_electric rail_fast ship container cable_car subway aircraft wheelchair scooter drone" speed="27.78" length="7.86" shape="1719.29,1353.23 1720.86,1345.53"/>
    </edge>
    <edge id=":10833309629_0" function="internal">
        <lane id=":10833309629_0_0" index="0" disallow="tram rail_urban rail rail_electric rail_fast ship container cable_car subway aircraft wheelchair scooter drone" speed="22.22" length="1.47" shape="1711.19,1365.88 1712.52,1366.51"/>
    </edge>
    <edge id=":10833309629_1" function="internal">
        <lane id=":10833309629_1_0" index="0" disallow="tram rail_urban rail rail_electric rail_fast ship container cable_car subway aircraft wheelchair scooter drone" speed="22.22" length="1.47" shape="1713.90,1363.62 1712.57,1362.99"/>
    </edge>
    <edge id=":10833309632_0" function="internal">
        <lane id=":10833309632_0_0" index="0" disallow="tram rail_urban rail rail_electric rail_fast ship container cable_car subway aircraft wheelchair scooter drone" speed="22.22" length="0.30" shape="1684.54,1353.14 1684.27,1353.01"/>
    </edge>
    <edge id=":10833309632_1" function="internal">
        <lane id=":10833309632_1_0" index="0" disallow="tram rail_urban rail rail_electric rail_fast ship container cable_car subway aircraft wheelchair scooter drone" speed="22.22" length="0.30" shape="1685.66,1350.13 1685.93,1350.26"/>
    </edge>
    <edge id=":10861437531_0" function="internal">
        <lane id=":10861437531_0_0" index="0" disallow="tram rail_urban rail rail_electric rail_fast ship container cable_car subway aircraft wheelchair scooter drone" speed="18.73" length="9.75" shape="1667.25,1739.19 1664.90,1737.52 1663.16,1736.53 1661.28,1735.89 1658.47,1735.24"/>
    </edge>
    <edge id=":10861437531_1" function="internal">
        <lane id=":10861437531_1_0" index="0" disallow="tram rail_urban rail rail_electric rail_fast ship container cable_car subway aircraft wheelchair scooter drone" speed="21.80" length="9.78" shape="1668.14,1735.14 1665.28,1735.63 1663.29,1735.87 1661.31,1735.77 1658.47,1735.24"/>
    </edge>
    <edge id=":10861437532_0" function="internal">
        <lane id=":10861437532_0_0" index="0" disallow="tram rail_urban rail rail_electric rail_fast ship container cable_car subway aircraft wheelchair scooter drone" speed="27.78" length="10.64" shape="1658.75,1688.40 1668.60,1684.38"/>
    </edge>
    <edge id=":10861437532_1" function="internal">
        <lane id=":10861437532_1_0" index="0" disallow="tram rail_urban rail rail_electric rail_fast ship container cable_car subway aircraft wheelchair scooter drone" speed="16.68" length="10.82" shape="1658.75,1688.40 1661.72,1687.61 1664.00,1687.47 1666.32,1687.77 1669.39,1688.30"/>
    </edge>
    <edge id=":10923878767_0" function="internal">
        <lane id=":10923878767_0_0" index="0" disallow="pedestrian bicycle tram rail_urban rail rail_electric rail_fast ship container cable_car subway aircraft wheelchair scooter drone" speed="22.22" length="35.95" shape="2287.90,3104.88 2289.28,3109.92 2291.40,3117.54 2295.04,3127.01 2301.01,3137.64"/>
        <lane id=":10923878767_0_1" index="1" disallow="pedestrian bicycle tram rail_urban rail rail_electric rail_fast ship container cable_car subway aircraft wheelchair scooter drone" speed="22.22" length="35.95" shape="2287.90,3104.88 2288.84,3110.16 2289.99,3118.31 2292.70,3128.38 2298.36,3139.43"/>
    </edge>
    <edge id=":10923878767_2" function="internal">
        <lane id=":10923878767_2_0" index="0" disallow="pedestrian bicycle tram rail_urban rail rail_electric rail_fast ship container cable_car subway aircraft wheelchair scooter drone" speed="22.22" length="35.63" shape="2284.61,3106.42 2289.10,3115.90 2292.05,3122.47 2295.39,3128.82 2301.01,3137.64"/>
        <lane id=":10923878767_2_1" index="1" disallow="pedestrian bicycle tram rail_urban rail rail_electric rail_fast ship container cable_car subway aircraft wheelchair scooter drone" speed="22.22" length="35.63" shape="2281.85,3108.04 2286.36,3117.58 2289.34,3124.18 2292.70,3130.56 2298.36,3139.43"/>
        <lane id=":10923878767_2_2" index="2" disallow="pedestrian bicycle tram rail_urban rail rail_electric rail_fast ship container cable_car subway aircraft wheelchair scooter drone" speed="22.22" length="35.63" shape="2279.08,3109.66 2283.62,3119.26 2286.62,3125.89 2290.01,3132.30 2295.71,3141.22"/>
        <lane id=":10923878767_2_3" index="3" disallow="pedestrian bicycle tram rail_urban rail rail_electric rail_fast ship container cable_car subway aircraft wheelchair scooter drone" speed="22.22" length="35.63" shape="2276.31,3111.29 2280.88,3120.93 2283.91,3127.60 2287.33,3134.05 2293.06,3143.01"/>
    </edge>
    <edge id=":10923878797_0" function="internal">
        <lane id=":10923878797_0_0" index="0" disallow="pedestrian bicycle tram rail_urban rail rail_electric rail_fast ship container cable_car subway aircraft wheelchair scooter drone" speed="22.22" length="0.28" shape="2014.18,2505.69 2014.02,2505.46"/>
    </edge>
    <edge id=":10923878798_0" function="internal">
        <lane id=":10923878798_0_0" index="0" disallow="pedestrian bicycle tram rail_urban rail rail_electric rail_fast ship container cable_car subway aircraft wheelchair scooter drone" speed="22.22" length="22.23" shape="1997.81,2481.98 1994.70,2478.25 1990.36,2473.77 1985.89,2469.40 1982.40,2465.98"/>
    </edge>
    <edge id=":10923878798_1" function="internal">
        <lane id=":10923878798_1_0" index="0" disallow="pedestrian bicycle tram rail_urban rail rail_electric rail_fast ship container cable_car subway aircraft wheelchair scooter drone" speed="22.22" length="27.83" shape="1997.81,2481.98 1980.99,2459.81"/>
    </edge>
    <edge id=":10923878799_0" function="internal">
        <lane id=":10923878799_0_0" index="0" disallow="pedestrian bicycle tram rail_urban rail rail_electric rail_fast ship container cable_car subway aircraft wheelchair scooter drone" speed="22.22" length="27.15" shape="1983.63,2472.04 1967.22,2450.41"/>
    </edge>
    <edge id=":10923878799_1" function="internal">
        <lane id=":10923878799_1_0" index="0" disallow="pedestrian bicycle tram rail_urban rail rail_electric rail_fast ship container cable_car subway aircraft wheelchair scooter drone" speed="22.22" length="21.54" shape="1982.26,2465.83 1967.22,2450.41"/>
    </edge>
    <edge id=":10923903134_0" function="internal">
        <lane id=":10923903134_0_0" index="0" disallow="pedestrian bicycle tram rail_urban rail rail_electric rail_fast ship container cable_car subway aircraft wheelchair scooter drone" speed="22.22" length="0.30" shape="1771.80,2218.60 1771.62,2218.36"/>
    </edge>
    <edge id=":10923903136_0" function="internal">
        <lane id=":10923903136_0_0" index="0" disallow="pedestrian bicycle tram rail_urban rail rail_electric rail_fast ship container cable_car subway aircraft wheelchair scooter drone" speed="22.22" length="27.68" shape="1752.62,2192.99 1750.48,2189.05 1747.63,2183.77 1743.52,2177.47 1737.55,2170.44"/>
        <lane id=":10923903136_0_1" index="1" disallow="pedestrian bicycle tram rail_urban rail rail_electric rail_fast ship container cable_car subway aircraft wheelchair scooter drone" speed="22.22" length="27.68" shape="1752.62,2192.99 1750.87,2188.74 1748.88,2182.76 1745.57,2175.71 1739.85,2168.21"/>
    </edge>
    <edge id=":10923903136_2" function="internal">
        <lane id=":10923903136_2_0" index="0" disallow="pedestrian bicycle tram rail_urban rail rail_electric rail_fast ship container cable_car subway aircraft wheelchair scooter drone" speed="22.22" length="27.26" shape="1755.76,2190.59 1737.55,2170.44"/>
        <lane id=":10923903136_2_1" index="1" disallow="pedestrian bicycle tram rail_urban rail rail_electric rail_fast ship container cable_car subway aircraft wheelchair scooter drone" speed="22.22" length="27.26" shape="1758.10,2188.42 1739.85,2168.21"/>
        <lane id=":10923903136_2_2" index="2" disallow="pedestrian bicycle tram rail_urban rail rail_electric rail_fast ship container cable_car subway aircraft wheelchair scooter drone" speed="22.22" length="27.26" shape="1760.45,2186.24 1742.14,2165.98"/>
        <lane id=":10923903136_2_3" index="3" disallow="pedestrian bicycle tram rail_urban rail rail_electric rail_fast ship container cable_car subway aircraft wheelchair scooter drone" speed="22.22" length="27.26" shape="1762.79,2184.06 1744.44,2163.75"/>
    </edge>
    <edge id=":10923903157_0" function="internal">
        <lane id=":10923903157_0_0" index="0" disallow="pedestrian bicycle tram rail_urban rail rail_electric rail_fast ship container cable_car subway aircraft wheelchair scooter drone" speed="22.22" length="12.16" shape="1993.78,2382.67 1996.04,2385.06 1998.17,2386.82 2000.44,2388.43 2003.11,2390.40"/>
    </edge>
    <edge id=":10923903157_1" function="internal">
        <lane id=":10923903157_1_0" index="0" disallow="pedestrian bicycle tram rail_urban rail rail_electric rail_fast ship container cable_car subway aircraft wheelchair scooter drone" speed="22.22" length="12.15" shape="1993.78,2382.67 1995.80,2385.28 1997.29,2387.60 1998.68,2390.01 2000.37,2392.86"/>
    </edge>
    <edge id=":10983344454_0" function="internal">
        <lane id=":10983344454_0_0" index="0" disallow="tram rail_urban rail rail_electric rail_fast ship container cable_car subway aircraft wheelchair scooter drone" speed="22.22" length="0.10" shape="1410.53,536.56 1410.51,536.55"/>
        <lane id=":10983344454_0_1" index="1" disallow="tram rail_urban rail rail_electric rail_fast ship container cable_car subway aircraft wheelchair scooter drone" speed="22.22" length="0.10" shape="1412.15,533.80 1412.00,533.72"/>
    </edge>
    <edge id=":10983344454_2" function="internal">
        <lane id=":10983344454_2_0" index="0" disallow="tram rail_urban rail rail_electric rail_fast ship container cable_car subway aircraft wheelchair scooter drone" speed="22.22" length="0.57" shape="1417.92,522.37 1418.63,522.76"/>
        <lane id=":10983344454_2_1" index="1" disallow="tram rail_urban rail rail_electric rail_fast ship container cable_car subway aircraft wheelchair scooter drone" speed="22.22" length="0.57" shape="1416.44,525.21 1417.01,525.52"/>
        <lane id=":10983344454_2_2" index="2" disallow="tram rail_urban rail rail_electric rail_fast ship container cable_car subway aircraft wheelchair scooter drone" speed="22.22" length="0.57" shape="1414.96,528.04 1415.39,528.28"/>
        <lane id=":10983344454_2_3" index="3" disallow="tram rail_urban rail rail_electric rail_fast ship container cable_car subway aircraft wheelchair scooter drone" speed="22.22" length="0.57" shape="1413.48,530.88 1413.77,531.04"/>
    </edge>
    <edge id=":10983344456_0" function="internal">
        <lane id=":10983344456_0_0" index="0" disallow="tram rail_urban rail rail_electric rail_fast ship container cable_car subway aircraft wheelchair scooter drone" speed="27.78" length="0.30" shape="1410.45,554.30 1410.61,554.04"/>
        <lane id=":10983344456_0_1" index="1" disallow="tram rail_urban rail rail_electric rail_fast ship container cable_car subway aircraft wheelchair scooter drone" speed="27.78" length="0.30" shape="1413.17,555.98 1413.33,555.73"/>
        <lane id=":10983344456_0_2" index="2" disallow="tram rail_urban rail rail_electric rail_fast ship container cable_car subway aircraft wheelchair scooter drone" speed="27.78" length="0.30" shape="1415.89,557.67 1416.05,557.42"/>
        <lane id=":10983344456_0_3" index="3" disallow="tram rail_urban rail rail_electric rail_fast ship container cable_car subway aircraft wheelchair scooter drone" speed="27.78" length="0.30" shape="1418.61,559.36 1418.77,559.10"/>
        <lane id=":10983344456_0_4" index="4" disallow="tram rail_urban rail rail_electric rail_fast ship container cable_car subway aircraft wheelchair scooter drone" speed="27.78" length="0.30" shape="1421.33,561.04 1421.49,560.79"/>
    </edge>
    <edge id=":10983344457_0" function="internal">
        <lane id=":10983344457_0_0" index="0" disallow="tram rail_urban rail rail_electric rail_fast ship container cable_car subway aircraft wheelchair scooter drone" speed="27.78" length="0.66" shape="1445.19,576.91 1445.13,577.00"/>
        <lane id=":10983344457_0_1" index="1" disallow="tram rail_urban rail rail_electric rail_fast ship container cable_car subway aircraft wheelchair scooter drone" speed="27.78" length="0.66" shape="1442.61,575.02 1442.43,575.29"/>
        <lane id=":10983344457_0_2" index="2" disallow="tram rail_urban rail rail_electric rail_fast ship container cable_car subway aircraft wheelchair scooter drone" speed="27.78" length="0.66" shape="1440.03,573.12 1439.72,573.57"/>
        <lane id=":10983344457_0_3" index="3" disallow="tram rail_urban rail rail_electric rail_fast ship container cable_car subway aircraft wheelchair scooter drone" speed="27.78" length="0.66" shape="1437.45,571.23 1437.02,571.86"/>
        <lane id=":10983344457_0_4" index="4" disallow="tram rail_urban rail rail_electric rail_fast ship container cable_car subway aircraft wheelchair scooter drone" speed="27.78" length="0.66" shape="1434.87,569.33 1434.32,570.15"/>
        <lane id=":10983344457_0_5" index="5" disallow="tram rail_urban rail rail_electric rail_fast ship container cable_car subway aircraft wheelchair scooter drone" speed="27.78" length="0.66" shape="1432.29,567.44 1431.61,568.44"/>
    </edge>
    <edge id=":10983344458_0" function="internal">
        <lane id=":10983344458_0_0" index="0" disallow="tram rail_urban rail rail_electric rail_fast ship container cable_car subway aircraft wheelchair scooter drone" speed="22.22" length="8.69" shape="1386.81,524.17 1384.32,523.43 1382.38,523.64 1380.46,523.82 1378.01,522.99"/>
        <lane id=":10983344458_0_1" index="1" disallow="tram rail_urban rail rail_electric rail_fast ship container cable_car subway aircraft wheelchair scooter drone" speed="22.22" length="8.69" shape="1388.29,521.33 1385.83,520.61 1383.92,520.83 1382.02,521.03 1379.61,520.22"/>
        <lane id=":10983344458_0_2" index="2" disallow="tram rail_urban rail rail_electric rail_fast ship container cable_car subway aircraft wheelchair scooter drone" speed="22.22" length="8.69" shape="1388.29,521.33 1381.21,517.44"/>
    </edge>
    <edge id=":10983344458_3" function="internal">
        <lane id=":10983344458_3_0" index="0" disallow="tram rail_urban rail rail_electric rail_fast ship container cable_car subway aircraft wheelchair scooter drone" speed="22.22" length="7.75" shape="1387.59,506.35 1394.22,509.99"/>
        <lane id=":10983344458_3_1" index="1" disallow="tram rail_urban rail rail_electric rail_fast ship container cable_car subway aircraft wheelchair scooter drone" speed="22.22" length="7.75" shape="1385.99,509.12 1392.73,512.82"/>
        <lane id=":10983344458_3_2" index="2" disallow="tram rail_urban rail rail_electric rail_fast ship container cable_car subway aircraft wheelchair scooter drone" speed="22.22" length="7.75" shape="1384.40,511.90 1391.25,515.66"/>
        <lane id=":10983344458_3_3" index="3" disallow="tram rail_urban rail rail_electric rail_fast ship container cable_car subway aircraft wheelchair scooter drone" speed="22.22" length="7.75" shape="1382.80,514.67 1389.77,518.49"/>
    </edge>
    <edge id=":10983344461_0" function="internal">
        <lane id=":10983344461_0_0" index="0" disallow="tram rail_urban rail rail_electric rail_fast ship container cable_car subway aircraft wheelchair scooter drone" speed="27.78" length="8.19" shape="1393.73,584.41 1394.76,582.21 1395.13,580.54 1395.51,578.88 1396.57,576.70"/>
        <lane id=":10983344461_0_1" index="1" disallow="tram rail_urban rail rail_electric rail_fast ship container cable_car subway aircraft wheelchair scooter drone" speed="27.78" length="8.19" shape="1396.47,586.06 1397.49,583.87 1397.86,582.21 1398.23,580.56 1399.28,578.38"/>
        <lane id=":10983344461_0_2" index="2" disallow="tram rail_urban rail rail_electric rail_fast ship container cable_car subway aircraft wheelchair scooter drone" speed="27.78" length="8.19" shape="1399.21,587.71 1400.23,585.53 1400.59,583.88 1400.96,582.23 1402.00,580.07"/>
        <lane id=":10983344461_0_3" index="3" disallow="tram rail_urban rail rail_electric rail_fast ship container cable_car subway aircraft wheelchair scooter drone" speed="27.78" length="8.19" shape="1401.95,589.36 1402.97,587.20 1403.32,585.55 1403.68,583.91 1404.72,581.76"/>
        <lane id=":10983344461_0_4" index="4" disallow="tram rail_urban rail rail_electric rail_fast ship container cable_car subway aircraft wheelchair scooter drone" speed="27.78" length="8.19" shape="1404.69,591.01 1405.70,588.86 1406.05,587.22 1406.41,585.58 1407.44,583.44"/>
    </edge>
    <edge id=":10983344462_0" function="internal">
        <lane id=":10983344462_0_0" index="0" disallow="tram rail_urban rail rail_electric rail_fast ship container cable_car subway aircraft wheelchair scooter drone" speed="27.78" length="0.50" shape="1430.89,519.94 1431.36,519.17"/>
        <lane id=":10983344462_0_1" index="1" disallow="tram rail_urban rail rail_electric rail_fast ship container cable_car subway aircraft wheelchair scooter drone" speed="27.78" length="0.50" shape="1433.67,521.52 1434.03,520.92"/>
        <lane id=":10983344462_0_2" index="2" disallow="tram rail_urban rail rail_electric rail_fast ship container cable_car subway aircraft wheelchair scooter drone" speed="27.78" length="0.50" shape="1436.45,523.10 1436.71,522.67"/>
        <lane id=":10983344462_0_3" index="3" disallow="tram rail_urban rail rail_electric rail_fast ship container cable_car subway aircraft wheelchair scooter drone" speed="27.78" length="0.50" shape="1439.23,524.68 1439.39,524.43"/>
        <lane id=":10983344462_0_4" index="4" disallow="tram rail_urban rail rail_electric rail_fast ship container cable_car subway aircraft wheelchair scooter drone" speed="27.78" length="0.50" shape="1442.02,526.26 1442.07,526.18"/>
    </edge>
    <edge id=":11069243722_0" function="internal">
        <lane id=":11069243722_0_0" index="0" disallow="tram rail_urban rail rail_electric rail_fast ship container cable_car subway aircraft wheelchair scooter drone" speed="27.78" length="0.39" shape="1025.34,1278.88 1025.00,1279.47"/>
        <lane id=":11069243722_0_1" index="1" disallow="tram rail_urban rail rail_electric rail_fast ship container cable_car subway aircraft wheelchair scooter drone" speed="27.78" length="0.39" shape="1022.53,1277.35 1022.28,1277.77"/>
        <lane id=":11069243722_0_2" index="2" disallow="tram rail_urban rail rail_electric rail_fast ship container cable_car subway aircraft wheelchair scooter drone" speed="27.78" length="0.39" shape="1019.71,1275.83 1019.57,1276.08"/>
        <lane id=":11069243722_0_3" index="3" disallow="tram rail_urban rail rail_electric rail_fast ship container cable_car subway aircraft wheelchair scooter drone" speed="27.78" length="0.39" shape="1016.90,1274.30 1016.85,1274.39"/>
    </edge>
    <edge id=":11177272202_0" function="internal">
        <lane id=":11177272202_0_0" index="0" disallow="tram rail_urban rail rail_electric rail_fast ship container cable_car subway aircraft wheelchair scooter drone" speed="27.78" length="14.20" shape="2444.19,1295.90 2442.31,1292.17 2440.80,1289.73 2439.23,1287.32 2437.16,1283.68"/>
        <lane id=":11177272202_0_1" index="1" disallow="tram rail_urban rail rail_electric rail_fast ship container cable_car subway aircraft wheelchair scooter drone" speed="27.78" length="14.20" shape="2447.10,1294.56 2445.20,1290.78 2443.67,1288.31 2442.09,1285.87 2439.99,1282.19"/>
    </edge>
    <edge id=":11177272202_2" function="internal">
        <lane id=":11177272202_2_0" index="0" disallow="tram rail_urban rail rail_electric rail_fast ship container cable_car subway aircraft wheelchair scooter drone" speed="3.65" length="1.44" shape="2447.10,1294.56 2447.33,1293.14"/>
    </edge>
    <edge id=":11177272202_8" function="internal">
        <lane id=":11177272202_8_0" index="0" disallow="tram rail_urban rail rail_electric rail_fast ship container cable_car subway aircraft wheelchair scooter drone" speed="3.65" length="3.23" shape="2447.33,1293.14 2447.89,1292.44 2448.78,1292.47 2450.01,1293.23"/>
    </edge>
    <edge id=":11177272202_3" function="internal">
        <lane id=":11177272202_3_0" index="0" disallow="tram rail_urban rail rail_electric rail_fast ship container cable_car subway aircraft wheelchair scooter drone" speed="25.00" length="14.42" shape="2450.14,1277.85 2450.36,1281.23 2450.59,1284.30 2451.29,1287.65 2452.91,1291.89"/>
    </edge>
    <edge id=":11177272202_4" function="internal">
        <lane id=":11177272202_4_0" index="0" disallow="tram rail_urban rail rail_electric rail_fast ship container cable_car subway aircraft wheelchair scooter drone" speed="6.16" length="15.19" shape="2450.14,1277.85 2449.21,1281.87 2446.36,1284.34 2442.87,1284.65 2439.99,1282.19"/>
    </edge>
    <edge id=":11177272202_5" function="internal">
        <lane id=":11177272202_5_0" index="0" disallow="tram rail_urban rail rail_electric rail_fast ship container cable_car subway aircraft wheelchair scooter drone" speed="27.78" length="14.53" shape="2445.65,1279.20 2452.91,1291.89"/>
        <lane id=":11177272202_5_1" index="1" disallow="tram rail_urban rail rail_electric rail_fast ship container cable_car subway aircraft wheelchair scooter drone" speed="27.78" length="14.53" shape="2442.82,1280.69 2450.01,1293.23"/>
    </edge>
    <edge id=":11177272202_7" function="internal">
        <lane id=":11177272202_7_0" index="0" disallow="tram rail_urban rail rail_electric rail_fast ship container cable_car subway aircraft wheelchair scooter drone" speed="3.65" length="1.44" shape="2442.82,1280.69 2442.67,1282.13"/>
    </edge>
    <edge id=":11177272202_9" function="internal">
        <lane id=":11177272202_9_0" index="0" disallow="tram rail_urban rail rail_electric rail_fast ship container cable_car subway aircraft wheelchair scooter drone" speed="3.65" length="3.23" shape="2442.67,1282.13 2442.15,1282.85 2441.26,1282.87 2439.99,1282.19"/>
    </edge>
    <edge id=":11177272203_0" function="internal">
        <lane id=":11177272203_0_0" index="0" disallow="tram rail_urban rail rail_electric rail_fast ship container cable_car subway aircraft wheelchair scooter drone" speed="18.05" length="15.54" shape="2569.52,1552.31 2566.97,1548.14 2564.36,1545.42 2561.66,1543.41 2558.83,1541.34"/>
    </edge>