<?xml version="1.0" encoding="UTF-8"?>

<!-- generated on 2024-12-06 19:06:48 by Eclipse SUMO netedit Version 1.20.0
-->

<routes xmlns:xsi="http://www.w3.org/2001/XMLSchema-instance" xsi:noNamespaceSchemaLocation="http://sumo.dlr.de/xsd/routes_file.xsd">
    <!-- VTypes -->
    <vType id="ambulance" length="5.00" maxSpeed="25.00" vClass="emergency" color="red" accel="2.6" decel="4.5" sigma="0.5"/>
    <vType id="regular" maxSpeed="25.00" vClass="passenger" lcStrategic="1.0" lcSpeedGain="1.0" lcKeepRight="0.0" accel="1.0" decel="1.5"/>
    <!-- Vehicles, persons and containers (sorted by depart) -->
    <flow id="regularFlowA" type="regular" begin="0.00" departLane="random" from="73591208#0" to="406642246#2" end="1000.00" number="120"/>
    <flow id="regularFlowB" type="regular" begin="0.00" departLane="random" from="993264236#0" to="909315384#1" end="1000.00" number="50"/>
    <flow id="regularFlowC" type="regular" begin="0.00" departLane="random" from="70998416#1" to="1193259448" end="1000.00" number="120"/>
    <flow id="regularFlowD" type="regular" begin="0.00" departLane="random" from="73591208#0" to="87646561" end="1000.00" number="40"/>
    <flow id="regularFlowE" type="regular" begin="0.00" departLane="random" from="844484886#0" to="70998378#1" end="1000.00" number="200"/>
    <flow id="regularFlowF" type="regular" begin="0.00" departLane="random" from="406642245#0" to="59097516#1" end="1000.00" number="200"/>
    <vehicle id="emergency1" type="ambulance" depart="100.00" departLane="random" color="red">
        <route edges="218855790#1 908608594 844484889 908608597 218899424 1192416061 59097471 975305196#0 975305196#1 59097494 65108194 406642246#0 1028447863 65112827 1028447539 909315384#0 -856525750"/>
    </vehicle>
</routes>
