<?xml version="1.0" encoding="UTF-8"?>

<!-- generated on 2024-12-06 15:32:41 by Eclipse SUMO netedit Version 1.20.0
<configuration xmlns:xsi="http://www.w3.org/2001/XMLSchema-instance" xsi:noNamespaceSchemaLocation="http://sumo.dlr.de/xsd/neteditConfiguration.xsd">

    <input>
        <sumo-net-file value="D:\Programming\capstone\asanH\map\asanH.net.xml"/>
    </input>

    <output>
        <output-file value="D:\Programming\capstone\asanH\map\asanH.net.xml"/>
    </output>

    <processing>
        <geometry.min-radius.fix.railways value="false"/>
        <geometry.max-grade.fix value="false"/>
        <offset.disable-normalization value="true"/>
        <lefthand value="0"/>
    </processing>

    <junctions>
        <no-turnarounds value="true"/>
        <junctions.corner-detail value="5"/>
        <junctions.limit-turn-speed value="5.50"/>
        <rectangular-lane-cut value="0"/>
    </junctions>

    <pedestrian>
        <walkingareas value="0"/>
    </pedestrian>

</configuration>
-->

<net version="1.20" junctionCornerDetail="5" limitTurnSpeed="5.50" xmlns:xsi="http://www.w3.org/2001/XMLSchema-instance" xsi:noNamespaceSchemaLocation="http://sumo.dlr.de/xsd/net_file.xsd">

    <location netOffset="-330102.26,-4152722.99" convBoundary="0.00,0.00,4919.53,3586.38" origBoundary="127.077532,37.506327,127.133062,37.538748" projParameter="+proj=utm +zone=52 +ellps=WGS84 +datum=WGS84 +units=m +no_defs"/>

    <type id="highway.primary" priority="12" numLanes="2" speed="27.78" disallow="tram rail_urban rail rail_electric rail_fast ship" oneway="0"/>
    <type id="highway.residential" priority="3" numLanes="1" speed="13.89" disallow="tram rail_urban rail rail_electric rail_fast ship" oneway="0"/>
    <type id="highway.secondary" priority="11" numLanes="1" speed="27.78" disallow="tram rail_urban rail rail_electric rail_fast ship" oneway="0"/>
    <type id="highway.secondary_link" priority="6" numLanes="1" speed="22.22" disallow="tram rail_urban rail rail_electric rail_fast ship" oneway="0"/>
    <type id="highway.service" priority="1" numLanes="1" speed="5.56" allow="pedestrian delivery bicycle" oneway="0"/>
    <type id="highway.tertiary" priority="10" numLanes="1" speed="22.22" disallow="tram rail_urban rail rail_electric rail_fast ship" oneway="0"/>
    <type id="highway.tertiary_link" priority="5" numLanes="1" speed="22.22" disallow="tram rail_urban rail rail_electric rail_fast ship" oneway="0"/>
    <type id="highway.trunk" priority="13" numLanes="2" speed="27.78" disallow="pedestrian bicycle tram rail_urban rail rail_electric rail_fast ship" oneway="0"/>
    <type id="highway.trunk_link" priority="8" numLanes="1" speed="22.22" disallow="pedestrian bicycle tram rail_urban rail rail_electric rail_fast ship" oneway="0"/>
    <type id="highway.unclassified" priority="4" numLanes="1" speed="13.89" disallow="tram rail_urban rail rail_electric rail_fast ship" oneway="0"/>

    <edge id=":10777963309_0" function="internal">
        <lane id=":10777963309_0_0" index="0" disallow="tram rail_urban rail rail_electric rail_fast ship" speed="6.66" length="9.90" shape="3562.82,2143.92 3561.15,2141.47 3559.26,2140.13 3557.15,2139.91 3554.81,2140.79"/>
    </edge>
    <edge id=":10777963309_1" function="internal">
        <lane id=":10777963309_1_0" index="0" disallow="tram rail_urban rail rail_electric rail_fast ship" speed="27.78" length="13.21" shape="3565.66,2142.45 3564.34,2138.81 3564.17,2136.07 3564.07,2133.29 3562.94,2129.56"/>
        <lane id=":10777963309_1_1" index="1" disallow="tram rail_urban rail rail_electric rail_fast ship" speed="27.78" length="13.21" shape="3568.50,2140.98 3567.20,2137.39 3567.06,2134.68 3566.97,2131.94 3565.86,2128.26"/>
    </edge>
    <edge id=":10777963309_3" function="internal">
        <lane id=":10777963309_3_0" index="0" disallow="tram rail_urban rail rail_electric rail_fast ship" speed="3.65" length="1.44" shape="3571.35,2139.51 3571.51,2138.08"/>
    </edge>
    <edge id=":10777963309_12" function="internal">
        <lane id=":10777963309_12_0" index="0" disallow="tram rail_urban rail rail_electric rail_fast ship" speed="3.65" length="3.23" shape="3571.51,2138.08 3572.03,2137.36 3572.93,2137.34 3574.19,2138.04"/>
    </edge>
    <edge id=":10777963309_4" function="internal">
        <lane id=":10777963309_4_0" index="0" disallow="tram rail_urban rail rail_electric rail_fast ship" speed="6.24" length="9.06" shape="3585.54,2126.48 3583.30,2127.67 3582.09,2129.26 3581.89,2131.25 3582.72,2133.64"/>
        <lane id=":10777963309_4_1" index="1" disallow="tram rail_urban rail rail_electric rail_fast ship" speed="7.08" length="11.99" shape="3585.54,2126.48 3581.98,2128.17 3579.86,2130.17 3579.15,2132.48 3579.87,2135.10"/>
    </edge>
    <edge id=":10777963309_6" function="internal">
        <lane id=":10777963309_6_0" index="0" disallow="tram rail_urban rail rail_electric rail_fast ship" speed="27.78" length="33.91" shape="3585.54,2126.48 3579.36,2129.08 3570.03,2133.32 3560.77,2137.72 3554.81,2140.79"/>
    </edge>
    <edge id=":10777963309_7" function="internal">
        <lane id=":10777963309_7_0" index="0" disallow="tram rail_urban rail rail_electric rail_fast ship" speed="9.84" length="20.74" shape="3585.54,2126.48 3577.69,2128.97 3571.80,2130.10 3567.86,2129.86 3565.86,2128.26"/>
    </edge>
    <edge id=":10777963309_8" function="internal">
        <lane id=":10777963309_8_0" index="0" disallow="tram rail_urban rail rail_electric rail_fast ship" speed="27.78" length="12.25" shape="3571.70,2125.65 3577.03,2136.57"/>
        <lane id=":10777963309_8_1" index="1" disallow="tram rail_urban rail rail_electric rail_fast ship" speed="27.78" length="12.25" shape="3568.78,2126.95 3574.19,2138.04"/>
    </edge>
    <edge id=":10777963309_10" function="internal">
        <lane id=":10777963309_10_0" index="0" disallow="tram rail_urban rail rail_electric rail_fast ship" speed="9.94" length="2.16" shape="3568.78,2126.95 3568.68,2129.12"/>
    </edge>
    <edge id=":10777963309_11" function="internal">
        <lane id=":10777963309_11_0" index="0" disallow="tram rail_urban rail rail_electric rail_fast ship" speed="3.65" length="1.44" shape="3568.78,2126.95 3568.54,2128.38"/>
    </edge>
    <edge id=":10777963309_13" function="internal">
        <lane id=":10777963309_13_0" index="0" disallow="tram rail_urban rail rail_electric rail_fast ship" speed="9.94" length="18.42" shape="3568.68,2129.12 3568.66,2129.50 3566.29,2132.65 3561.67,2136.41 3554.81,2140.79"/>
    </edge>
    <edge id=":10777963309_14" function="internal">
        <lane id=":10777963309_14_0" index="0" disallow="tram rail_urban rail rail_electric rail_fast ship" speed="3.65" length="3.23" shape="3568.54,2128.38 3567.97,2129.07 3567.08,2129.03 3565.86,2128.26"/>
    </edge>
    <edge id=":10833087501_0" function="internal">
        <lane id=":10833087501_0_0" index="0" disallow="tram rail_urban rail rail_electric rail_fast ship" speed="27.78" length="8.69" shape="2458.29,1303.21 2456.86,1305.06 2454.93,1305.62 2453.00,1306.17 2451.58,1308.03"/>
    </edge>
    <edge id=":10833087501_1" function="internal">
        <lane id=":10833087501_1_0" index="0" disallow="tram rail_urban rail rail_electric rail_fast ship" speed="3.65" length="4.67" shape="2455.26,1302.18 2454.11,1303.06 2453.23,1303.18 2452.60,1302.55 2452.23,1301.15"/>
    </edge>
    <edge id=":10833087501_2" function="internal">
        <lane id=":10833087501_2_0" index="0" disallow="tram rail_urban rail rail_electric rail_fast ship" speed="6.66" length="6.57" shape="2444.32,1303.90 2446.01,1303.56 2447.38,1302.82 2448.45,1301.67 2449.20,1300.12"/>
        <lane id=":10833087501_2_1" index="1" disallow="tram rail_urban rail rail_electric rail_fast ship" speed="7.56" length="8.68" shape="2444.32,1303.90 2447.50,1303.53 2449.87,1302.94 2451.45,1302.15 2452.23,1301.15"/>
    </edge>
    <edge id=":10833087501_4" function="internal">
        <lane id=":10833087501_4_0" index="0" disallow="tram rail_urban rail rail_electric rail_fast ship" speed="6.10" length="10.21" shape="2444.32,1303.90 2448.11,1303.91 2450.58,1304.60 2451.74,1305.97 2451.58,1308.03"/>
    </edge>
    <edge id=":10833309605_0" function="internal">
        <lane id=":10833309605_0_0" index="0" disallow="tram rail_urban rail rail_electric rail_fast ship" speed="3.65" length="4.67" shape="2425.37,1247.14 2426.10,1245.90 2426.88,1245.45 2427.70,1245.81 2428.57,1246.96"/>
    </edge>
    <edge id=":10833309607_0" function="internal">
        <lane id=":10833309607_0_0" index="0" disallow="tram rail_urban rail rail_electric rail_fast ship" speed="27.78" length="0.30" shape="2427.60,1386.76 2427.54,1387.06"/>
    </edge>
    <edge id=":10833309608_0" function="internal">
        <lane id=":10833309608_0_0" index="0" disallow="tram rail_urban rail rail_electric rail_fast ship" speed="27.78" length="0.30" shape="2409.84,1381.95 2409.92,1381.65"/>
    </edge>
    <edge id=":10833309621_0" function="internal">
        <lane id=":10833309621_0_0" index="0" disallow="tram rail_urban rail rail_electric rail_fast ship" speed="27.78" length="0.28" shape="2435.01,1359.48 2434.93,1359.75"/>
    </edge>
    <edge id=":10833309622_0" function="internal">
        <lane id=":10833309622_0_0" index="0" disallow="tram rail_urban rail rail_electric rail_fast ship" speed="27.78" length="0.10" shape="2415.66,1357.34 2415.66,1357.34"/>
    </edge>
    <edge id=":10833309624_0" function="internal">
        <lane id=":10833309624_0_0" index="0" disallow="tram rail_urban rail rail_electric rail_fast ship" speed="22.22" length="0.30" shape="2447.37,1381.48 2447.08,1381.39"/>
    </edge>
    <edge id=":10833309624_1" function="internal">
        <lane id=":10833309624_1_0" index="0" disallow="tram rail_urban rail rail_electric rail_fast ship" speed="22.22" length="0.30" shape="2448.07,1378.34 2448.35,1378.43"/>
    </edge>
    <edge id=":10833309627_0" function="internal">
        <lane id=":10833309627_0_0" index="0" disallow="tram rail_urban rail rail_electric rail_fast ship" speed="9.83" length="7.78" shape="2413.06,1351.05 2415.00,1349.76 2416.41,1348.82 2417.40,1347.62 2418.07,1345.53"/>
    </edge>
    <edge id=":10833309627_1" function="internal">
        <lane id=":10833309627_1_0" index="0" disallow="tram rail_urban rail rail_electric rail_fast ship" speed="27.78" length="7.86" shape="2416.50,1353.23 2418.07,1345.53"/>
    </edge>
    <edge id=":10833309629_0" function="internal">
        <lane id=":10833309629_0_0" index="0" disallow="tram rail_urban rail rail_electric rail_fast ship" speed="22.22" length="1.25" shape="2408.47,1365.90 2409.60,1366.44"/>
    </edge>
    <edge id=":10833309629_1" function="internal">
        <lane id=":10833309629_1_0" index="0" disallow="tram rail_urban rail rail_electric rail_fast ship" speed="22.22" length="1.24" shape="2410.97,1363.55 2409.85,1363.02"/>
    </edge>
    <edge id=":10833309632_0" function="internal">
        <lane id=":10833309632_0_0" index="0" disallow="tram rail_urban rail rail_electric rail_fast ship" speed="22.22" length="0.10" shape="2381.62,1353.07 2381.62,1353.07"/>
    </edge>
    <edge id=":10833309632_1" function="internal">
        <lane id=":10833309632_1_0" index="0" disallow="tram rail_urban rail rail_electric rail_fast ship" speed="22.22" length="0.10" shape="2383.02,1350.19 2383.02,1350.19"/>
    </edge>
    <edge id=":10861437531_0" function="internal">
        <lane id=":10861437531_0_0" index="0" disallow="tram rail_urban rail rail_electric rail_fast ship" speed="18.84" length="9.75" shape="2364.47,1739.19 2362.11,1737.53 2360.38,1736.54 2358.49,1735.89 2355.68,1735.25"/>
    </edge>
    <edge id=":10861437531_1" function="internal">
        <lane id=":10861437531_1_0" index="0" disallow="tram rail_urban rail rail_electric rail_fast ship" speed="21.67" length="9.78" shape="2365.36,1735.14 2362.50,1735.64 2360.50,1735.87 2358.52,1735.77 2355.68,1735.25"/>
    </edge>
    <edge id=":10861437532_0" function="internal">
        <lane id=":10861437532_0_0" index="0" disallow="tram rail_urban rail rail_electric rail_fast ship" speed="27.78" length="10.63" shape="2355.96,1688.40 2365.80,1684.38"/>
    </edge>
    <edge id=":10861437532_1" function="internal">
        <lane id=":10861437532_1_0" index="0" disallow="tram rail_urban rail rail_electric rail_fast ship" speed="16.61" length="10.81" shape="2355.96,1688.40 2358.93,1687.61 2361.21,1687.46 2363.52,1687.76 2366.60,1688.30"/>
    </edge>
    <edge id=":10923878767_0" function="internal">
        <lane id=":10923878767_0_0" index="0" disallow="pedestrian bicycle tram rail_urban rail rail_electric rail_fast ship" speed="22.22" length="35.98" shape="2985.10,3104.85 2986.49,3109.90 2988.60,3117.52 2992.24,3127.00 2998.22,3137.64"/>
        <lane id=":10923878767_0_1" index="1" disallow="pedestrian bicycle tram rail_urban rail rail_electric rail_fast ship" speed="22.22" length="35.98" shape="2985.10,3104.85 2986.04,3110.13 2987.19,3118.29 2989.91,3128.37 2995.57,3139.43"/>
    </edge>
    <edge id=":10923878767_2" function="internal">
        <lane id=":10923878767_2_0" index="0" disallow="pedestrian bicycle tram rail_urban rail rail_electric rail_fast ship" speed="22.22" length="35.66" shape="2981.81,3106.39 2986.30,3115.88 2989.26,3122.46 2992.59,3128.81 2998.22,3137.64"/>
        <lane id=":10923878767_2_1" index="1" disallow="pedestrian bicycle tram rail_urban rail rail_electric rail_fast ship" speed="22.22" length="35.66" shape="2979.05,3108.01 2983.56,3117.56 2986.54,3124.17 2989.91,3130.55 2995.57,3139.43"/>
        <lane id=":10923878767_2_2" index="2" disallow="pedestrian bicycle tram rail_urban rail rail_electric rail_fast ship" speed="22.22" length="35.66" shape="2976.28,3109.64 2980.83,3119.24 2983.83,3125.88 2987.22,3132.30 2992.92,3141.22"/>
        <lane id=":10923878767_2_3" index="3" disallow="pedestrian bicycle tram rail_urban rail rail_electric rail_fast ship" speed="22.22" length="35.66" shape="2973.51,3111.26 2978.09,3120.91 2981.12,3127.59 2984.53,3134.04 2990.27,3143.01"/>
    </edge>
    <edge id=":10923878797_0" function="internal">
        <lane id=":10923878797_0_0" index="0" disallow="pedestrian bicycle tram rail_urban rail rail_electric rail_fast ship" speed="22.22" length="0.28" shape="2711.40,2505.69 2711.24,2505.45"/>
    </edge>
    <edge id=":10923878798_0" function="internal">
        <lane id=":10923878798_0_0" index="0" disallow="pedestrian bicycle tram rail_urban rail rail_electric rail_fast ship" speed="22.22" length="22.23" shape="2695.02,2481.98 2691.91,2478.24 2687.57,2473.77 2683.11,2469.40 2679.62,2465.98"/>
    </edge>
    <edge id=":10923878798_1" function="internal">
        <lane id=":10923878798_1_0" index="0" disallow="pedestrian bicycle tram rail_urban rail rail_electric rail_fast ship" speed="22.22" length="27.79" shape="2695.02,2481.98 2678.23,2459.84"/>
    </edge>
    <edge id=":10923878799_0" function="internal">
        <lane id=":10923878799_0_0" index="0" disallow="pedestrian bicycle tram rail_urban rail rail_electric rail_fast ship" speed="22.22" length="27.12" shape="2680.82,2472.02 2664.43,2450.41"/>
    </edge>
    <edge id=":10923878799_1" function="internal">
        <lane id=":10923878799_1_0" index="0" disallow="pedestrian bicycle tram rail_urban rail rail_electric rail_fast ship" speed="22.22" length="21.55" shape="2679.48,2465.84 2664.43,2450.41"/>
    </edge>
    <edge id=":10923903134_0" function="internal">
        <lane id=":10923903134_0_0" index="0" disallow="pedestrian bicycle tram rail_urban rail rail_electric rail_fast ship" speed="22.22" length="0.30" shape="2469.01,2218.60 2468.83,2218.36"/>
    </edge>
    <edge id=":10923903136_0" function="internal">
        <lane id=":10923903136_0_0" index="0" disallow="pedestrian bicycle tram rail_urban rail rail_electric rail_fast ship" speed="22.22" length="27.69" shape="2449.85,2193.02 2447.71,2189.07 2444.86,2183.80 2440.74,2177.49 2434.77,2170.45"/>
        <lane id=":10923903136_0_1" index="1" disallow="pedestrian bicycle tram rail_urban rail rail_electric rail_fast ship" speed="22.22" length="27.69" shape="2449.85,2193.02 2448.10,2188.76 2446.11,2182.79 2442.79,2175.73 2437.07,2168.23"/>
    </edge>
    <edge id=":10923903136_2" function="internal">
        <lane id=":10923903136_2_0" index="0" disallow="pedestrian bicycle tram rail_urban rail rail_electric rail_fast ship" speed="22.22" length="27.28" shape="2452.99,2190.62 2434.77,2170.45"/>
        <lane id=":10923903136_2_1" index="1" disallow="pedestrian bicycle tram rail_urban rail rail_electric rail_fast ship" speed="22.22" length="27.28" shape="2455.33,2188.44 2437.07,2168.23"/>
        <lane id=":10923903136_2_2" index="2" disallow="pedestrian bicycle tram rail_urban rail rail_electric rail_fast ship" speed="22.22" length="27.28" shape="2457.68,2186.26 2439.37,2166.00"/>
        <lane id=":10923903136_2_3" index="3" disallow="pedestrian bicycle tram rail_urban rail rail_electric rail_fast ship" speed="22.22" length="27.28" shape="2460.02,2184.08 2441.66,2163.77"/>
    </edge>
    <edge id=":10923903157_0" function="internal">
        <lane id=":10923903157_0_0" index="0" disallow="pedestrian bicycle tram rail_urban rail rail_electric rail_fast ship" speed="22.22" length="12.17" shape="2690.99,2382.67 2693.25,2385.06 2695.39,2386.82 2697.66,2388.44 2700.33,2390.41"/>
    </edge>
    <edge id=":10923903157_1" function="internal">
        <lane id=":10923903157_1_0" index="0" disallow="pedestrian bicycle tram rail_urban rail rail_electric rail_fast ship" speed="22.22" length="12.17" shape="2690.99,2382.67 2693.01,2385.28 2694.51,2387.61 2695.90,2390.02 2697.60,2392.87"/>
    </edge>
    <edge id=":10983344454_0" function="internal">
        <lane id=":10983344454_0_0" index="0" disallow="tram rail_urban rail rail_electric rail_fast ship" speed="22.22" length="0.10" shape="2107.75,536.56 2107.73,536.56"/>
        <lane id=":10983344454_0_1" index="1" disallow="tram rail_urban rail rail_electric rail_fast ship" speed="22.22" length="0.10" shape="2109.37,533.80 2109.21,533.72"/>
    </edge>
    <edge id=":10983344454_2" function="internal">
        <lane id=":10983344454_2_0" index="0" disallow="tram rail_urban rail rail_electric rail_fast ship" speed="22.22" length="0.57" shape="2115.14,522.38 2115.85,522.76"/>
        <lane id=":10983344454_2_1" index="1" disallow="tram rail_urban rail rail_electric rail_fast ship" speed="22.22" length="0.57" shape="2113.66,525.21 2114.23,525.52"/>
        <lane id=":10983344454_2_2" index="2" disallow="tram rail_urban rail rail_electric rail_fast ship" speed="22.22" length="0.57" shape="2112.18,528.05 2112.61,528.28"/>
        <lane id=":10983344454_2_3" index="3" disallow="tram rail_urban rail rail_electric rail_fast ship" speed="22.22" length="0.57" shape="2110.70,530.88 2110.99,531.04"/>
    </edge>
    <edge id=":10983344456_0" function="internal">
        <lane id=":10983344456_0_0" index="0" disallow="tram rail_urban rail rail_electric rail_fast ship" speed="27.78" length="0.30" shape="2107.67,554.29 2107.83,554.04"/>
        <lane id=":10983344456_0_1" index="1" disallow="tram rail_urban rail rail_electric rail_fast ship" speed="27.78" length="0.30" shape="2110.39,555.98 2110.55,555.73"/>
        <lane id=":10983344456_0_2" index="2" disallow="tram rail_urban rail rail_electric rail_fast ship" speed="27.78" length="0.30" shape="2113.11,557.67 2113.27,557.41"/>
        <lane id=":10983344456_0_3" index="3" disallow="tram rail_urban rail rail_electric rail_fast ship" speed="27.78" length="0.30" shape="2115.83,559.35 2115.99,559.10"/>
        <lane id=":10983344456_0_4" index="4" disallow="tram rail_urban rail rail_electric rail_fast ship" speed="27.78" length="0.30" shape="2118.55,561.04 2118.71,560.79"/>
    </edge>
    <edge id=":10983344457_0" function="internal">
        <lane id=":10983344457_0_0" index="0" disallow="tram rail_urban rail rail_electric rail_fast ship" speed="27.78" length="0.66" shape="2142.40,576.91 2142.34,577.00"/>
        <lane id=":10983344457_0_1" index="1" disallow="tram rail_urban rail rail_electric rail_fast ship" speed="27.78" length="0.66" shape="2139.82,575.02 2139.64,575.29"/>
        <lane id=":10983344457_0_2" index="2" disallow="tram rail_urban rail rail_electric rail_fast ship" speed="27.78" length="0.66" shape="2137.24,573.12 2136.94,573.57"/>
        <lane id=":10983344457_0_3" index="3" disallow="tram rail_urban rail rail_electric rail_fast ship" speed="27.78" length="0.66" shape="2134.67,571.23 2134.23,571.86"/>
        <lane id=":10983344457_0_4" index="4" disallow="tram rail_urban rail rail_electric rail_fast ship" speed="27.78" length="0.66" shape="2132.09,569.33 2131.53,570.15"/>
        <lane id=":10983344457_0_5" index="5" disallow="tram rail_urban rail rail_electric rail_fast ship" speed="27.78" length="0.66" shape="2129.51,567.44 2128.83,568.44"/>
    </edge>
    <edge id=":10983344458_0" function="internal">
        <lane id=":10983344458_0_0" index="0" disallow="tram rail_urban rail rail_electric rail_fast ship" speed="22.22" length="8.69" shape="2084.01,524.16 2081.52,523.42 2079.59,523.63 2077.66,523.81 2075.22,522.99"/>
        <lane id=":10983344458_0_1" index="1" disallow="tram rail_urban rail rail_electric rail_fast ship" speed="22.22" length="8.69" shape="2085.50,521.33 2083.04,520.60 2081.12,520.83 2079.23,521.02 2076.82,520.21"/>
        <lane id=":10983344458_0_2" index="2" disallow="tram rail_urban rail rail_electric rail_fast ship" speed="22.22" length="8.69" shape="2085.50,521.33 2078.41,517.44"/>
    </edge>
    <edge id=":10983344458_3" function="internal">
        <lane id=":10983344458_3_0" index="0" disallow="tram rail_urban rail rail_electric rail_fast ship" speed="22.22" length="7.75" shape="2084.80,506.35 2091.42,509.98"/>
        <lane id=":10983344458_3_1" index="1" disallow="tram rail_urban rail rail_electric rail_fast ship" speed="22.22" length="7.75" shape="2083.20,509.12 2089.94,512.82"/>
        <lane id=":10983344458_3_2" index="2" disallow="tram rail_urban rail rail_electric rail_fast ship" speed="22.22" length="7.75" shape="2081.61,511.89 2088.46,515.65"/>
        <lane id=":10983344458_3_3" index="3" disallow="tram rail_urban rail rail_electric rail_fast ship" speed="22.22" length="7.75" shape="2080.01,514.67 2086.98,518.49"/>
    </edge>
    <edge id=":10983344461_0" function="internal">
        <lane id=":10983344461_0_0" index="0" disallow="tram rail_urban rail rail_electric rail_fast ship" speed="27.78" length="8.19" shape="2090.94,584.42 2091.97,582.22 2092.34,580.55 2092.72,578.89 2093.78,576.70"/>
        <lane id=":10983344461_0_1" index="1" disallow="tram rail_urban rail rail_electric rail_fast ship" speed="27.78" length="8.19" shape="2093.68,586.07 2094.71,583.88 2095.07,582.22 2095.44,580.56 2096.50,578.39"/>
        <lane id=":10983344461_0_2" index="2" disallow="tram rail_urban rail rail_electric rail_fast ship" speed="27.78" length="8.19" shape="2096.42,587.72 2097.44,585.54 2097.80,583.89 2098.17,582.24 2099.22,580.07"/>
        <lane id=":10983344461_0_3" index="3" disallow="tram rail_urban rail rail_electric rail_fast ship" speed="27.78" length="8.19" shape="2099.16,589.37 2100.18,587.20 2100.53,585.55 2100.90,583.91 2101.94,581.76"/>
        <lane id=":10983344461_0_4" index="4" disallow="tram rail_urban rail rail_electric rail_fast ship" speed="27.78" length="8.19" shape="2101.90,591.02 2102.91,588.86 2103.26,587.22 2103.62,585.59 2104.65,583.45"/>
    </edge>
    <edge id=":10983344462_0" function="internal">
        <lane id=":10983344462_0_0" index="0" disallow="tram rail_urban rail rail_electric rail_fast ship" speed="27.78" length="0.50" shape="2128.10,519.93 2128.57,519.17"/>
        <lane id=":10983344462_0_1" index="1" disallow="tram rail_urban rail rail_electric rail_fast ship" speed="27.78" length="0.50" shape="2130.89,521.51 2131.25,520.92"/>
        <lane id=":10983344462_0_2" index="2" disallow="tram rail_urban rail rail_electric rail_fast ship" speed="27.78" length="0.50" shape="2133.67,523.10 2133.93,522.67"/>
        <lane id=":10983344462_0_3" index="3" disallow="tram rail_urban rail rail_electric rail_fast ship" speed="27.78" length="0.50" shape="2136.45,524.68 2136.60,524.42"/>
        <lane id=":10983344462_0_4" index="4" disallow="tram rail_urban rail rail_electric rail_fast ship" speed="27.78" length="0.50" shape="2139.23,526.26 2139.28,526.18"/>
    </edge>
    <edge id=":11069243722_0" function="internal">
        <lane id=":11069243722_0_0" index="0" disallow="tram rail_urban rail rail_electric rail_fast ship" speed="27.78" length="0.39" shape="1722.55,1278.88 1722.21,1279.47"/>
        <lane id=":11069243722_0_1" index="1" disallow="tram rail_urban rail rail_electric rail_fast ship" speed="27.78" length="0.39" shape="1719.74,1277.35 1719.49,1277.77"/>
        <lane id=":11069243722_0_2" index="2" disallow="tram rail_urban rail rail_electric rail_fast ship" speed="27.78" length="0.39" shape="1716.93,1275.83 1716.78,1276.08"/>
        <lane id=":11069243722_0_3" index="3" disallow="tram rail_urban rail rail_electric rail_fast ship" speed="27.78" length="0.39" shape="1714.11,1274.30 1714.06,1274.38"/>
    </edge>
    <edge id=":11172192477_0" function="internal">
        <lane id=":11172192477_0_0" index="0" disallow="tram rail_urban rail rail_electric rail_fast ship" speed="27.78" length="1.07" shape="2262.94,333.33 2262.97,333.29 2262.99,333.26 2263.02,333.23 2263.04,333.18"/>
        <lane id=":11172192477_0_1" index="1" disallow="tram rail_urban rail rail_electric rail_fast ship" speed="27.78" length="1.07" shape="2265.45,335.32 2265.55,335.19 2265.61,335.10 2265.67,335.01 2265.76,334.88"/>
        <lane id=":11172192477_0_2" index="2" disallow="tram rail_urban rail rail_electric rail_fast ship" speed="27.78" length="1.07" shape="2267.95,337.31 2268.12,337.10 2268.23,336.95 2268.33,336.80 2268.47,336.58"/>
        <lane id=":11172192477_0_3" index="3" disallow="tram rail_urban rail rail_electric rail_fast ship" speed="27.78" length="1.07" shape="2270.46,339.30 2270.69,339.00 2270.84,338.80 2270.98,338.59 2271.18,338.27"/>
        <lane id=":11172192477_0_4" index="4" disallow="tram rail_urban rail rail_electric rail_fast ship" speed="27.78" length="1.07" shape="2272.97,341.28 2273.26,340.91 2273.46,340.65 2273.64,340.38 2273.89,339.97"/>
        <lane id=":11172192477_0_5" index="5" disallow="tram rail_urban rail rail_electric rail_fast ship" speed="27.78" length="1.07" shape="2275.47,343.27 2275.83,342.82 2276.07,342.50 2276.30,342.16 2276.61,341.67"/>
    </edge>
    <edge id=":11177272192_0" function="internal">
        <lane id=":11177272192_0_0" index="0" disallow="tram rail_urban rail rail_electric rail_fast ship" speed="27.78" length="10.11" shape="3321.87,1120.03 3331.00,1115.69"/>
    </edge>
    <edge id=":11177272192_1" function="internal">
        <lane id=":11177272192_1_0" index="0" disallow="tram rail_urban rail rail_electric rail_fast ship" speed="16.61" length="10.14" shape="3321.87,1120.03 3324.62,1119.01 3326.65,1118.88 3328.78,1119.16 3331.79,1119.41"/>
    </edge>
    <edge id=":11177272196_0" function="internal">
        <lane id=":11177272196_0_0" index="0" disallow="tram rail_urban rail rail_electric rail_fast ship" speed="27.78" length="7.84" shape="3358.24,1135.67 3351.17,1139.07"/>
    </edge>
    <edge id=":11177272196_1" function="internal">
        <lane id=":11177272196_1_0" index="0" disallow="tram rail_urban rail rail_electric rail_fast ship" speed="9.55" length="7.74" shape="3355.20,1132.86 3354.47,1135.06 3353.93,1136.66 3353.02,1137.91 3351.17,1139.07"/>
    </edge>
    <edge id=":11177272202_0" function="internal">
        <lane id=":11177272202_0_0" index="0" disallow="tram rail_urban rail rail_electric rail_fast ship" speed="27.78" length="14.19" shape="3141.41,1295.89 3139.53,1292.16 3138.02,1289.72 3136.45,1287.32 3134.37,1283.68"/>
        <lane id=":11177272202_0_1" index="1" disallow="tram rail_urban rail rail_electric rail_fast ship" speed="27.78" length="14.19" shape="3144.31,1294.55 3142.41,1290.78 3140.89,1288.31 3139.30,1285.87 3137.21,1282.19"/>
    </edge>
    <edge id=":11177272202_2" function="internal">
        <lane id=":11177272202_2_0" index="0" disallow="tram rail_urban rail rail_electric rail_fast ship" speed="3.65" length="1.44" shape="3144.31,1294.55 3144.54,1293.13"/>
    </edge>
    <edge id=":11177272202_8" function="internal">
        <lane id=":11177272202_8_0" index="0" disallow="tram rail_urban rail rail_electric rail_fast ship" speed="3.65" length="3.23" shape="3144.54,1293.13 3145.10,1292.43 3145.99,1292.46 3147.22,1293.22"/>
    </edge>
    <edge id=":11177272202_3" function="internal">
        <lane id=":11177272202_3_0" index="0" disallow="tram rail_urban rail rail_electric rail_fast ship" speed="25.00" length="14.41" shape="3147.35,1277.86 3147.57,1281.24 3147.80,1284.30 3148.50,1287.65 3150.13,1291.88"/>
    </edge>
    <edge id=":11177272202_4" function="internal">
        <lane id=":11177272202_4_0" index="0" disallow="tram rail_urban rail rail_electric rail_fast ship" speed="6.16" length="15.19" shape="3147.35,1277.86 3146.42,1281.87 3143.57,1284.34 3140.08,1284.66 3137.21,1282.19"/>
    </edge>
    <edge id=":11177272202_5" function="internal">
        <lane id=":11177272202_5_0" index="0" disallow="tram rail_urban rail rail_electric rail_fast ship" speed="27.78" length="14.52" shape="3142.87,1279.20 3150.13,1291.88"/>
        <lane id=":11177272202_5_1" index="1" disallow="tram rail_urban rail rail_electric rail_fast ship" speed="27.78" length="14.52" shape="3140.04,1280.70 3147.22,1293.22"/>
    </edge>
    <edge id=":11177272202_7" function="internal">
        <lane id=":11177272202_7_0" index="0" disallow="tram rail_urban rail rail_electric rail_fast ship" speed="3.65" length="1.44" shape="3140.04,1280.70 3139.89,1282.13"/>
    </edge>
    <edge id=":11177272202_9" function="internal">