<?xml version="1.0" encoding="UTF-8"?>

<!-- generated on 2024-11-01 22:54:06 by Eclipse SUMO netconvert Version 1.20.0
<configuration xmlns:xsi="http://www.w3.org/2001/XMLSchema-instance" xsi:noNamespaceSchemaLocation="http://sumo.dlr.de/xsd/netconvertConfiguration.xsd">

    <input>
        <osm-files value="asanH_withPoly.osm"/>
    </input>

    <output>
        <output-file value="asanH3.net.xml"/>
    </output>

    <projection>
        <proj.utm value="true"/>
    </projection>

    <processing>
        <geometry.max-grade.fix value="true"/>
    </processing>

    <tls_building>
        <tls.guess value="true"/>
        <tls.join value="true"/>
    </tls_building>

</configuration>
-->

<net version="1.20" junctionCornerDetail="5" limitTurnSpeed="5.50" xmlns:xsi="http://www.w3.org/2001/XMLSchema-instance" xsi:noNamespaceSchemaLocation="http://sumo.dlr.de/xsd/net_file.xsd">

    <location netOffset="-330102.26,-4152722.99" convBoundary="0.00,0.00,4919.53,3586.38" origBoundary="127.077532,37.506327,127.133062,37.538748" projParameter="+proj=utm +zone=52 +ellps=WGS84 +datum=WGS84 +units=m +no_defs"/>

    <type id="highway.primary" priority="12" numLanes="2" speed="27.78" disallow="tram rail_urban rail rail_electric rail_fast ship container cable_car subway aircraft wheelchair scooter drone" oneway="0"/>
    <type id="highway.residential" priority="3" numLanes="1" speed="13.89" disallow="tram rail_urban rail rail_electric rail_fast ship container cable_car subway aircraft wheelchair scooter drone" oneway="0"/>
    <type id="highway.secondary" priority="11" numLanes="1" speed="27.78" disallow="tram rail_urban rail rail_electric rail_fast ship container cable_car subway aircraft wheelchair scooter drone" oneway="0"/>
    <type id="highway.secondary_link" priority="6" numLanes="1" speed="22.22" disallow="tram rail_urban rail rail_electric rail_fast ship container cable_car subway aircraft wheelchair scooter drone" oneway="0"/>
    <type id="highway.service" priority="1" numLanes="1" speed="5.56" allow="pedestrian delivery bicycle" oneway="0"/>
    <type id="highway.tertiary" priority="10" numLanes="1" speed="22.22" disallow="tram rail_urban rail rail_electric rail_fast ship container cable_car subway aircraft wheelchair scooter drone" oneway="0"/>
    <type id="highway.tertiary_link" priority="5" numLanes="1" speed="22.22" disallow="tram rail_urban rail rail_electric rail_fast ship container cable_car subway aircraft wheelchair scooter drone" oneway="0"/>
    <type id="highway.trunk" priority="13" numLanes="2" speed="27.78" disallow="pedestrian bicycle tram rail_urban rail rail_electric rail_fast ship container cable_car subway aircraft wheelchair scooter drone" oneway="0"/>
    <type id="highway.trunk_link" priority="8" numLanes="1" speed="22.22" disallow="pedestrian bicycle tram rail_urban rail rail_electric rail_fast ship container cable_car subway aircraft wheelchair scooter drone" oneway="0"/>
    <type id="highway.unclassified" priority="4" numLanes="1" speed="13.89" disallow="tram rail_urban rail rail_electric rail_fast ship container cable_car subway aircraft wheelchair scooter drone" oneway="0"/>

    <edge id=":10777963309_0" function="internal">
        <lane id=":10777963309_0_0" index="0" disallow="tram rail_urban rail rail_electric rail_fast ship container cable_car subway aircraft wheelchair scooter drone" speed="6.66" length="9.91" shape="3562.82,2143.92 3561.15,2141.47 3559.26,2140.13 3557.15,2139.91 3554.80,2140.79"/>
    </edge>
    <edge id=":10777963309_1" function="internal">
        <lane id=":10777963309_1_0" index="0" disallow="tram rail_urban rail rail_electric rail_fast ship container cable_car subway aircraft wheelchair scooter drone" speed="27.78" length="13.21" shape="3565.66,2142.45 3564.33,2138.81 3564.17,2136.06 3564.07,2133.29 3562.93,2129.56"/>
        <lane id=":10777963309_1_1" index="1" disallow="tram rail_urban rail rail_electric rail_fast ship container cable_car subway aircraft wheelchair scooter drone" speed="27.78" length="13.21" shape="3568.50,2140.98 3567.20,2137.39 3567.05,2134.68 3566.97,2131.93 3565.86,2128.25"/>
    </edge>
    <edge id=":10777963309_3" function="internal">
        <lane id=":10777963309_3_0" index="0" disallow="tram rail_urban rail rail_electric rail_fast ship container cable_car subway aircraft wheelchair scooter drone" speed="3.65" length="1.44" shape="3571.34,2139.51 3571.50,2138.08"/>
    </edge>
    <edge id=":10777963309_12" function="internal">
        <lane id=":10777963309_12_0" index="0" disallow="tram rail_urban rail rail_electric rail_fast ship container cable_car subway aircraft wheelchair scooter drone" speed="3.65" length="3.23" shape="3571.50,2138.08 3572.03,2137.36 3572.93,2137.34 3574.19,2138.04"/>
    </edge>
    <edge id=":10777963309_4" function="internal">
        <lane id=":10777963309_4_0" index="0" disallow="tram rail_urban rail rail_electric rail_fast ship container cable_car subway aircraft wheelchair scooter drone" speed="6.24" length="9.06" shape="3585.53,2126.48 3583.30,2127.67 3582.08,2129.26 3581.89,2131.25 3582.72,2133.63"/>
        <lane id=":10777963309_4_1" index="1" disallow="tram rail_urban rail rail_electric rail_fast ship container cable_car subway aircraft wheelchair scooter drone" speed="7.08" length="11.99" shape="3585.53,2126.48 3581.98,2128.17 3579.85,2130.17 3579.15,2132.48 3579.87,2135.10"/>
    </edge>
    <edge id=":10777963309_6" function="internal">
        <lane id=":10777963309_6_0" index="0" disallow="tram rail_urban rail rail_electric rail_fast ship container cable_car subway aircraft wheelchair scooter drone" speed="27.78" length="33.91" shape="3585.53,2126.48 3579.35,2129.08 3570.02,2133.32 3560.76,2137.72 3554.80,2140.79"/>
    </edge>
    <edge id=":10777963309_7" function="internal">
        <lane id=":10777963309_7_0" index="0" disallow="tram rail_urban rail rail_electric rail_fast ship container cable_car subway aircraft wheelchair scooter drone" speed="9.84" length="20.74" shape="3585.53,2126.48 3577.69,2128.97 3571.80,2130.10 3567.85,2129.86 3565.86,2128.25"/>
    </edge>
    <edge id=":10777963309_8" function="internal">
        <lane id=":10777963309_8_0" index="0" disallow="tram rail_urban rail rail_electric rail_fast ship container cable_car subway aircraft wheelchair scooter drone" speed="27.78" length="12.25" shape="3571.70,2125.64 3577.03,2136.57"/>
        <lane id=":10777963309_8_1" index="1" disallow="tram rail_urban rail rail_electric rail_fast ship container cable_car subway aircraft wheelchair scooter drone" speed="27.78" length="12.25" shape="3568.78,2126.95 3574.19,2138.04"/>
    </edge>
    <edge id=":10777963309_10" function="internal">
        <lane id=":10777963309_10_0" index="0" disallow="tram rail_urban rail rail_electric rail_fast ship container cable_car subway aircraft wheelchair scooter drone" speed="9.94" length="2.17" shape="3568.78,2126.95 3568.67,2129.11"/>
    </edge>
    <edge id=":10777963309_11" function="internal">
        <lane id=":10777963309_11_0" index="0" disallow="tram rail_urban rail rail_electric rail_fast ship container cable_car subway aircraft wheelchair scooter drone" speed="3.65" length="1.44" shape="3568.78,2126.95 3568.54,2128.37"/>
    </edge>
    <edge id=":10777963309_13" function="internal">
        <lane id=":10777963309_13_0" index="0" disallow="tram rail_urban rail rail_electric rail_fast ship container cable_car subway aircraft wheelchair scooter drone" speed="9.94" length="18.42" shape="3568.67,2129.11 3568.65,2129.49 3566.28,2132.65 3561.67,2136.41 3554.80,2140.79"/>
    </edge>
    <edge id=":10777963309_14" function="internal">
        <lane id=":10777963309_14_0" index="0" disallow="tram rail_urban rail rail_electric rail_fast ship container cable_car subway aircraft wheelchair scooter drone" speed="3.65" length="3.23" shape="3568.54,2128.37 3567.97,2129.06 3567.08,2129.02 3565.86,2128.25"/>
    </edge>
    <edge id=":10833087501_0" function="internal">
        <lane id=":10833087501_0_0" index="0" disallow="tram rail_urban rail rail_electric rail_fast ship container cable_car subway aircraft wheelchair scooter drone" speed="27.78" length="8.69" shape="2458.28,1303.21 2456.86,1305.06 2454.93,1305.62 2453.00,1306.17 2451.58,1308.02"/>
    </edge>
    <edge id=":10833087501_1" function="internal">
        <lane id=":10833087501_1_0" index="0" disallow="tram rail_urban rail rail_electric rail_fast ship container cable_car subway aircraft wheelchair scooter drone" speed="3.65" length="4.67" shape="2455.25,1302.18 2454.11,1303.06 2453.22,1303.18 2452.59,1302.54 2452.22,1301.15"/>
    </edge>
    <edge id=":10833087501_2" function="internal">
        <lane id=":10833087501_2_0" index="0" disallow="tram rail_urban rail rail_electric rail_fast ship container cable_car subway aircraft wheelchair scooter drone" speed="6.66" length="6.57" shape="2444.31,1303.90 2446.00,1303.56 2447.38,1302.82 2448.44,1301.67 2449.19,1300.12"/>
        <lane id=":10833087501_2_1" index="1" disallow="tram rail_urban rail rail_electric rail_fast ship container cable_car subway aircraft wheelchair scooter drone" speed="7.56" length="8.68" shape="2444.31,1303.90 2447.49,1303.53 2449.87,1302.94 2451.45,1302.15 2452.22,1301.15"/>
    </edge>
    <edge id=":10833087501_4" function="internal">
        <lane id=":10833087501_4_0" index="0" disallow="tram rail_urban rail rail_electric rail_fast ship container cable_car subway aircraft wheelchair scooter drone" speed="6.10" length="10.21" shape="2444.31,1303.90 2448.10,1303.91 2450.58,1304.59 2451.73,1305.97 2451.58,1308.02"/>
    </edge>
    <edge id=":10833309605_0" function="internal">
        <lane id=":10833309605_0_0" index="0" disallow="tram rail_urban rail rail_electric rail_fast ship container cable_car subway aircraft wheelchair scooter drone" speed="3.65" length="4.67" shape="2425.37,1247.14 2426.11,1245.90 2426.88,1245.46 2427.70,1245.81 2428.57,1246.96"/>
    </edge>
    <edge id=":10833309607_0" function="internal">
        <lane id=":10833309607_0_0" index="0" disallow="tram rail_urban rail rail_electric rail_fast ship container cable_car subway aircraft wheelchair scooter drone" speed="27.78" length="0.30" shape="2427.60,1386.76 2427.54,1387.05"/>
    </edge>
    <edge id=":10833309608_0" function="internal">
        <lane id=":10833309608_0_0" index="0" disallow="tram rail_urban rail rail_electric rail_fast ship container cable_car subway aircraft wheelchair scooter drone" speed="27.78" length="0.10" shape="2409.88,1381.80 2409.88,1381.80"/>
    </edge>
    <edge id=":10833309621_0" function="internal">
        <lane id=":10833309621_0_0" index="0" disallow="tram rail_urban rail rail_electric rail_fast ship container cable_car subway aircraft wheelchair scooter drone" speed="27.78" length="0.28" shape="2435.01,1359.48 2434.93,1359.75"/>
    </edge>
    <edge id=":10833309622_0" function="internal">
        <lane id=":10833309622_0_0" index="0" disallow="tram rail_urban rail rail_electric rail_fast ship container cable_car subway aircraft wheelchair scooter drone" speed="27.78" length="0.10" shape="2415.66,1357.34 2415.66,1357.34"/>
    </edge>
    <edge id=":10833309624_0" function="internal">
        <lane id=":10833309624_0_0" index="0" disallow="tram rail_urban rail rail_electric rail_fast ship container cable_car subway aircraft wheelchair scooter drone" speed="22.22" length="0.10" shape="2447.23,1381.43 2447.23,1381.43"/>
    </edge>
    <edge id=":10833309624_1" function="internal">
        <lane id=":10833309624_1_0" index="0" disallow="tram rail_urban rail rail_electric rail_fast ship container cable_car subway aircraft wheelchair scooter drone" speed="22.22" length="0.10" shape="2448.22,1378.39 2448.22,1378.39"/>
    </edge>
    <edge id=":10833309627_0" function="internal">
        <lane id=":10833309627_0_0" index="0" disallow="tram rail_urban rail rail_electric rail_fast ship container cable_car subway aircraft wheelchair scooter drone" speed="9.82" length="7.77" shape="2413.06,1351.05 2415.00,1349.76 2416.40,1348.82 2417.39,1347.62 2418.07,1345.53"/>
    </edge>
    <edge id=":10833309627_1" function="internal">
        <lane id=":10833309627_1_0" index="0" disallow="tram rail_urban rail rail_electric rail_fast ship container cable_car subway aircraft wheelchair scooter drone" speed="27.78" length="7.86" shape="2416.50,1353.23 2418.07,1345.53"/>
    </edge>
    <edge id=":10833309629_0" function="internal">
        <lane id=":10833309629_0_0" index="0" disallow="tram rail_urban rail rail_electric rail_fast ship container cable_car subway aircraft wheelchair scooter drone" speed="22.22" length="1.47" shape="2408.40,1365.88 2409.73,1366.51"/>
    </edge>
    <edge id=":10833309629_1" function="internal">
        <lane id=":10833309629_1_0" index="0" disallow="tram rail_urban rail rail_electric rail_fast ship container cable_car subway aircraft wheelchair scooter drone" speed="22.22" length="1.47" shape="2411.11,1363.62 2409.78,1362.99"/>
    </edge>
    <edge id=":10833309632_0" function="internal">
        <lane id=":10833309632_0_0" index="0" disallow="tram rail_urban rail rail_electric rail_fast ship container cable_car subway aircraft wheelchair scooter drone" speed="22.22" length="0.30" shape="2381.76,1353.14 2381.49,1353.01"/>
    </edge>
    <edge id=":10833309632_1" function="internal">
        <lane id=":10833309632_1_0" index="0" disallow="tram rail_urban rail rail_electric rail_fast ship container cable_car subway aircraft wheelchair scooter drone" speed="22.22" length="0.30" shape="2382.88,1350.13 2383.15,1350.26"/>
    </edge>
    <edge id=":10861437531_0" function="internal">
        <lane id=":10861437531_0_0" index="0" disallow="tram rail_urban rail rail_electric rail_fast ship container cable_car subway aircraft wheelchair scooter drone" speed="18.73" length="9.75" shape="2364.46,1739.19 2362.11,1737.52 2360.38,1736.53 2358.49,1735.89 2355.68,1735.24"/>
    </edge>
    <edge id=":10861437531_1" function="internal">
        <lane id=":10861437531_1_0" index="0" disallow="tram rail_urban rail rail_electric rail_fast ship container cable_car subway aircraft wheelchair scooter drone" speed="21.80" length="9.78" shape="2365.35,1735.14 2362.50,1735.63 2360.50,1735.87 2358.52,1735.77 2355.68,1735.24"/>
    </edge>
    <edge id=":10861437532_0" function="internal">
        <lane id=":10861437532_0_0" index="0" disallow="tram rail_urban rail rail_electric rail_fast ship container cable_car subway aircraft wheelchair scooter drone" speed="27.78" length="10.64" shape="2355.96,1688.40 2365.81,1684.38"/>
    </edge>
    <edge id=":10861437532_1" function="internal">
        <lane id=":10861437532_1_0" index="0" disallow="tram rail_urban rail rail_electric rail_fast ship container cable_car subway aircraft wheelchair scooter drone" speed="16.68" length="10.82" shape="2355.96,1688.40 2358.93,1687.61 2361.21,1687.47 2363.53,1687.77 2366.61,1688.30"/>
    </edge>
    <edge id=":10923878767_0" function="internal">
        <lane id=":10923878767_0_0" index="0" disallow="pedestrian bicycle tram rail_urban rail rail_electric rail_fast ship container cable_car subway aircraft wheelchair scooter drone" speed="22.22" length="35.95" shape="2985.11,3104.88 2986.50,3109.92 2988.61,3117.54 2992.25,3127.01 2998.22,3137.64"/>
        <lane id=":10923878767_0_1" index="1" disallow="pedestrian bicycle tram rail_urban rail rail_electric rail_fast ship container cable_car subway aircraft wheelchair scooter drone" speed="22.22" length="35.95" shape="2985.11,3104.88 2986.05,3110.16 2987.20,3118.31 2989.92,3128.38 2995.57,3139.43"/>
    </edge>
    <edge id=":10923878767_2" function="internal">
        <lane id=":10923878767_2_0" index="0" disallow="pedestrian bicycle tram rail_urban rail rail_electric rail_fast ship container cable_car subway aircraft wheelchair scooter drone" speed="22.22" length="35.63" shape="2981.82,3106.42 2986.31,3115.90 2989.26,3122.47 2992.60,3128.82 2998.22,3137.64"/>
        <lane id=":10923878767_2_1" index="1" disallow="pedestrian bicycle tram rail_urban rail rail_electric rail_fast ship container cable_car subway aircraft wheelchair scooter drone" speed="22.22" length="35.63" shape="2979.06,3108.04 2983.57,3117.58 2986.55,3124.18 2989.91,3130.56 2995.57,3139.43"/>
        <lane id=":10923878767_2_2" index="2" disallow="pedestrian bicycle tram rail_urban rail rail_electric rail_fast ship container cable_car subway aircraft wheelchair scooter drone" speed="22.22" length="35.63" shape="2976.29,3109.66 2980.83,3119.26 2983.84,3125.89 2987.23,3132.30 2992.92,3141.22"/>
        <lane id=":10923878767_2_3" index="3" disallow="pedestrian bicycle tram rail_urban rail rail_electric rail_fast ship container cable_car subway aircraft wheelchair scooter drone" speed="22.22" length="35.63" shape="2973.52,3111.29 2978.10,3120.93 2981.12,3127.60 2984.54,3134.05 2990.27,3143.01"/>
    </edge>
    <edge id=":10923878797_0" function="internal">
        <lane id=":10923878797_0_0" index="0" disallow="pedestrian bicycle tram rail_urban rail rail_electric rail_fast ship container cable_car subway aircraft wheelchair scooter drone" speed="22.22" length="0.28" shape="2711.39,2505.69 2711.23,2505.46"/>
    </edge>
    <edge id=":10923878798_0" function="internal">
        <lane id=":10923878798_0_0" index="0" disallow="pedestrian bicycle tram rail_urban rail rail_electric rail_fast ship container cable_car subway aircraft wheelchair scooter drone" speed="22.22" length="22.23" shape="2695.02,2481.98 2691.91,2478.25 2687.57,2473.77 2683.10,2469.40 2679.61,2465.98"/>
    </edge>
    <edge id=":10923878798_1" function="internal">
        <lane id=":10923878798_1_0" index="0" disallow="pedestrian bicycle tram rail_urban rail rail_electric rail_fast ship container cable_car subway aircraft wheelchair scooter drone" speed="22.22" length="27.83" shape="2695.02,2481.98 2678.20,2459.81"/>
    </edge>
    <edge id=":10923878799_0" function="internal">
        <lane id=":10923878799_0_0" index="0" disallow="pedestrian bicycle tram rail_urban rail rail_electric rail_fast ship container cable_car subway aircraft wheelchair scooter drone" speed="22.22" length="27.15" shape="2680.84,2472.04 2664.43,2450.41"/>
    </edge>
    <edge id=":10923878799_1" function="internal">
        <lane id=":10923878799_1_0" index="0" disallow="pedestrian bicycle tram rail_urban rail rail_electric rail_fast ship container cable_car subway aircraft wheelchair scooter drone" speed="22.22" length="21.54" shape="2679.47,2465.83 2664.43,2450.41"/>
    </edge>
    <edge id=":10923903134_0" function="internal">
        <lane id=":10923903134_0_0" index="0" disallow="pedestrian bicycle tram rail_urban rail rail_electric rail_fast ship container cable_car subway aircraft wheelchair scooter drone" speed="22.22" length="0.30" shape="2469.01,2218.60 2468.83,2218.36"/>
    </edge>
    <edge id=":10923903136_0" function="internal">
        <lane id=":10923903136_0_0" index="0" disallow="pedestrian bicycle tram rail_urban rail rail_electric rail_fast ship container cable_car subway aircraft wheelchair scooter drone" speed="22.22" length="27.68" shape="2449.83,2192.99 2447.69,2189.05 2444.85,2183.77 2440.73,2177.47 2434.76,2170.44"/>
        <lane id=":10923903136_0_1" index="1" disallow="pedestrian bicycle tram rail_urban rail rail_electric rail_fast ship container cable_car subway aircraft wheelchair scooter drone" speed="22.22" length="27.68" shape="2449.83,2192.99 2448.08,2188.74 2446.09,2182.76 2442.78,2175.71 2437.06,2168.21"/>
    </edge>
    <edge id=":10923903136_2" function="internal">
        <lane id=":10923903136_2_0" index="0" disallow="pedestrian bicycle tram rail_urban rail rail_electric rail_fast ship container cable_car subway aircraft wheelchair scooter drone" speed="22.22" length="27.26" shape="2452.97,2190.59 2434.76,2170.44"/>
        <lane id=":10923903136_2_1" index="1" disallow="pedestrian bicycle tram rail_urban rail rail_electric rail_fast ship container cable_car subway aircraft wheelchair scooter drone" speed="22.22" length="27.26" shape="2455.31,2188.42 2437.06,2168.21"/>
        <lane id=":10923903136_2_2" index="2" disallow="pedestrian bicycle tram rail_urban rail rail_electric rail_fast ship container cable_car subway aircraft wheelchair scooter drone" speed="22.22" length="27.26" shape="2457.66,2186.24 2439.36,2165.98"/>
        <lane id=":10923903136_2_3" index="3" disallow="pedestrian bicycle tram rail_urban rail rail_electric rail_fast ship container cable_car subway aircraft wheelchair scooter drone" speed="22.22" length="27.26" shape="2460.00,2184.06 2441.65,2163.75"/>
    </edge>
    <edge id=":10923903157_0" function="internal">
        <lane id=":10923903157_0_0" index="0" disallow="pedestrian bicycle tram rail_urban rail rail_electric rail_fast ship container cable_car subway aircraft wheelchair scooter drone" speed="22.22" length="12.16" shape="2690.99,2382.67 2693.25,2385.06 2695.39,2386.82 2697.65,2388.43 2700.32,2390.40"/>
    </edge>
    <edge id=":10923903157_1" function="internal">
        <lane id=":10923903157_1_0" index="0" disallow="pedestrian bicycle tram rail_urban rail rail_electric rail_fast ship container cable_car subway aircraft wheelchair scooter drone" speed="22.22" length="12.15" shape="2690.99,2382.67 2693.01,2385.28 2694.51,2387.60 2695.90,2390.01 2697.59,2392.86"/>
    </edge>
    <edge id=":10983344454_0" function="internal">
        <lane id=":10983344454_0_0" index="0" disallow="tram rail_urban rail rail_electric rail_fast ship container cable_car subway aircraft wheelchair scooter drone" speed="22.22" length="0.10" shape="2107.75,536.56 2107.73,536.55"/>
        <lane id=":10983344454_0_1" index="1" disallow="tram rail_urban rail rail_electric rail_fast ship container cable_car subway aircraft wheelchair scooter drone" speed="22.22" length="0.10" shape="2109.37,533.80 2109.21,533.72"/>
    </edge>
    <edge id=":10983344454_2" function="internal">
        <lane id=":10983344454_2_0" index="0" disallow="tram rail_urban rail rail_electric rail_fast ship container cable_car subway aircraft wheelchair scooter drone" speed="22.22" length="0.57" shape="2115.14,522.37 2115.85,522.76"/>
        <lane id=":10983344454_2_1" index="1" disallow="tram rail_urban rail rail_electric rail_fast ship container cable_car subway aircraft wheelchair scooter drone" speed="22.22" length="0.57" shape="2113.65,525.21 2114.23,525.52"/>
        <lane id=":10983344454_2_2" index="2" disallow="tram rail_urban rail rail_electric rail_fast ship container cable_car subway aircraft wheelchair scooter drone" speed="22.22" length="0.57" shape="2112.17,528.04 2112.61,528.28"/>
        <lane id=":10983344454_2_3" index="3" disallow="tram rail_urban rail rail_electric rail_fast ship container cable_car subway aircraft wheelchair scooter drone" speed="22.22" length="0.57" shape="2110.69,530.88 2110.99,531.04"/>
    </edge>
    <edge id=":10983344456_0" function="internal">
        <lane id=":10983344456_0_0" index="0" disallow="tram rail_urban rail rail_electric rail_fast ship container cable_car subway aircraft wheelchair scooter drone" speed="27.78" length="0.30" shape="2107.67,554.30 2107.83,554.04"/>
        <lane id=":10983344456_0_1" index="1" disallow="tram rail_urban rail rail_electric rail_fast ship container cable_car subway aircraft wheelchair scooter drone" speed="27.78" length="0.30" shape="2110.39,555.98 2110.55,555.73"/>
        <lane id=":10983344456_0_2" index="2" disallow="tram rail_urban rail rail_electric rail_fast ship container cable_car subway aircraft wheelchair scooter drone" speed="27.78" length="0.30" shape="2113.11,557.67 2113.26,557.42"/>
        <lane id=":10983344456_0_3" index="3" disallow="tram rail_urban rail rail_electric rail_fast ship container cable_car subway aircraft wheelchair scooter drone" speed="27.78" length="0.30" shape="2115.83,559.36 2115.98,559.10"/>
        <lane id=":10983344456_0_4" index="4" disallow="tram rail_urban rail rail_electric rail_fast ship container cable_car subway aircraft wheelchair scooter drone" speed="27.78" length="0.30" shape="2118.55,561.04 2118.70,560.79"/>
    </edge>
    <edge id=":10983344457_0" function="internal">
        <lane id=":10983344457_0_0" index="0" disallow="tram rail_urban rail rail_electric rail_fast ship container cable_car subway aircraft wheelchair scooter drone" speed="27.78" length="0.66" shape="2142.40,576.91 2142.34,577.00"/>
        <lane id=":10983344457_0_1" index="1" disallow="tram rail_urban rail rail_electric rail_fast ship container cable_car subway aircraft wheelchair scooter drone" speed="27.78" length="0.66" shape="2139.82,575.02 2139.64,575.29"/>
        <lane id=":10983344457_0_2" index="2" disallow="tram rail_urban rail rail_electric rail_fast ship container cable_car subway aircraft wheelchair scooter drone" speed="27.78" length="0.66" shape="2137.24,573.12 2136.94,573.57"/>
        <lane id=":10983344457_0_3" index="3" disallow="tram rail_urban rail rail_electric rail_fast ship container cable_car subway aircraft wheelchair scooter drone" speed="27.78" length="0.66" shape="2134.66,571.23 2134.23,571.86"/>
        <lane id=":10983344457_0_4" index="4" disallow="tram rail_urban rail rail_electric rail_fast ship container cable_car subway aircraft wheelchair scooter drone" speed="27.78" length="0.66" shape="2132.09,569.33 2131.53,570.15"/>
        <lane id=":10983344457_0_5" index="5" disallow="tram rail_urban rail rail_electric rail_fast ship container cable_car subway aircraft wheelchair scooter drone" speed="27.78" length="0.66" shape="2129.51,567.44 2128.83,568.44"/>
    </edge>
    <edge id=":10983344458_0" function="internal">
        <lane id=":10983344458_0_0" index="0" disallow="tram rail_urban rail rail_electric rail_fast ship container cable_car subway aircraft wheelchair scooter drone" speed="22.22" length="8.69" shape="2084.02,524.17 2081.53,523.43 2079.59,523.64 2077.67,523.82 2075.23,522.99"/>
        <lane id=":10983344458_0_1" index="1" disallow="tram rail_urban rail rail_electric rail_fast ship container cable_car subway aircraft wheelchair scooter drone" speed="22.22" length="8.69" shape="2085.50,521.33 2083.04,520.61 2081.13,520.83 2079.23,521.03 2076.82,520.22"/>
        <lane id=":10983344458_0_2" index="2" disallow="tram rail_urban rail rail_electric rail_fast ship container cable_car subway aircraft wheelchair scooter drone" speed="22.22" length="8.69" shape="2085.50,521.33 2078.42,517.44"/>
    </edge>
    <edge id=":10983344458_3" function="internal">
        <lane id=":10983344458_3_0" index="0" disallow="tram rail_urban rail rail_electric rail_fast ship container cable_car subway aircraft wheelchair scooter drone" speed="22.22" length="7.75" shape="2084.80,506.35 2091.43,509.99"/>
        <lane id=":10983344458_3_1" index="1" disallow="tram rail_urban rail rail_electric rail_fast ship container cable_car subway aircraft wheelchair scooter drone" speed="22.22" length="7.75" shape="2083.20,509.12 2089.95,512.82"/>
        <lane id=":10983344458_3_2" index="2" disallow="tram rail_urban rail rail_electric rail_fast ship container cable_car subway aircraft wheelchair scooter drone" speed="22.22" length="7.75" shape="2081.61,511.90 2088.46,515.66"/>
        <lane id=":10983344458_3_3" index="3" disallow="tram rail_urban rail rail_electric rail_fast ship container cable_car subway aircraft wheelchair scooter drone" speed="22.22" length="7.75" shape="2080.01,514.67 2086.98,518.49"/>
    </edge>
    <edge id=":10983344461_0" function="internal">
        <lane id=":10983344461_0_0" index="0" disallow="tram rail_urban rail rail_electric rail_fast ship container cable_car subway aircraft wheelchair scooter drone" speed="27.78" length="8.19" shape="2090.94,584.41 2091.97,582.21 2092.34,580.54 2092.72,578.88 2093.78,576.70"/>
        <lane id=":10983344461_0_1" index="1" disallow="tram rail_urban rail rail_electric rail_fast ship container cable_car subway aircraft wheelchair scooter drone" speed="27.78" length="8.19" shape="2093.68,586.06 2094.71,583.87 2095.07,582.21 2095.44,580.56 2096.50,578.38"/>
        <lane id=":10983344461_0_2" index="2" disallow="tram rail_urban rail rail_electric rail_fast ship container cable_car subway aircraft wheelchair scooter drone" speed="27.78" length="8.19" shape="2096.42,587.71 2097.44,585.53 2097.80,583.88 2098.17,582.23 2099.22,580.07"/>
        <lane id=":10983344461_0_3" index="3" disallow="tram rail_urban rail rail_electric rail_fast ship container cable_car subway aircraft wheelchair scooter drone" speed="27.78" length="8.19" shape="2099.16,589.36 2100.18,587.20 2100.53,585.55 2100.90,583.91 2101.94,581.76"/>
        <lane id=":10983344461_0_4" index="4" disallow="tram rail_urban rail rail_electric rail_fast ship container cable_car subway aircraft wheelchair scooter drone" speed="27.78" length="8.19" shape="2101.91,591.01 2102.91,588.86 2103.26,587.22 2103.62,585.58 2104.66,583.44"/>
    </edge>
    <edge id=":10983344462_0" function="internal">
        <lane id=":10983344462_0_0" index="0" disallow="tram rail_urban rail rail_electric rail_fast ship container cable_car subway aircraft wheelchair scooter drone" speed="27.78" length="0.50" shape="2128.10,519.94 2128.57,519.17"/>
        <lane id=":10983344462_0_1" index="1" disallow="tram rail_urban rail rail_electric rail_fast ship container cable_car subway aircraft wheelchair scooter drone" speed="27.78" length="0.50" shape="2130.88,521.52 2131.25,520.92"/>
        <lane id=":10983344462_0_2" index="2" disallow="tram rail_urban rail rail_electric rail_fast ship container cable_car subway aircraft wheelchair scooter drone" speed="27.78" length="0.50" shape="2133.66,523.10 2133.92,522.67"/>