<!-- 송파나루역->아산병원 -->
<routes>
    <!-- 차량 타입 정의 : 일반차량 -->
    <vType id="regular" vClass="passenger" accel="1.0" decel="1.5" maxSpeed="25.0" lcStrategic="1.0" lcSpeedGain="1.0" lcKeepRight="0.0" />
    
    <!-- 일반 차량 설정 -->
    <flow id="regularFlowA" type="regular" begin="0" end="1000" number="120" from="73591208#0" to="-59097446#0" departLane="random"/> <!--올림픽대로-->
    <flow id="regularFlowB" type="regular" begin="0" end="1000" number="50" from="993264236#0" to="909315384#1" departLane="random"/> <!--송파대로(잠실역) -> 강동대로-->
    <flow id="regularFlowC" type="regular" begin="0" end="1000" number="120" from="70998416#1" to="1193259448" departLane="random"/> <!--송파대로(잠실역)-->
    <flow id="regularFlowD" type="regular" begin="0" end="1000" number="40" from="73591208#0" to="87646561" departLane="random"/> <!-- 올림픽대로 -> 한가람로-->
    <flow id="regularFlowE" type="regular" begin="0" end="1000" number="120" from="59097490" to="406642246#2" departLane="random"/> <!--올림픽대로2-->

    <!-- 구급차와 반대 차선 차량 -->
    <flow id="regularFlowF" type="regular" begin="0" end="1000" number="200" from="844484886#0" to="70998378#1" departLane="random"/> <!--송파대로-->
    <flow id="regularFlowG" type="regular" begin="0" end="1000" number="200" from="406642245#0" to="59097516#1" departLane="random"/> <!--올림픽대로-->


    <!-- 차량 타입 정의: 구급차 -->
    <vType id="ambulance" vClass="emergency" accel="2.6" decel="4.5" sigma="0.5" length="5.0" maxSpeed="25" color="1,0,0" departLane="random"/>
    
    <!-- 구급차 경로 설정 -->
    <vehicle id="emergency1" type="ambulance" depart="100.00" color="1,0,0" departLane="random">
        <route edges="-70998383#4 -70998383#3 -70998383#2 -70998383#1 -70998383#0 70986698#0 70986698#1 1206205736 908608591#1 -218899409#2 
        -218899409#1 -218899409#0 -426094557#5 -426094557#4 -426094557#3 -426094557#2 -426094557#1 -426094557#0 -426094556 -516725215 37403091#0 37403091#1
        37403091#2 352666085"/>
    </vehicle>
</routes>