<?xml version="1.0" encoding="UTF-8"?>

<!-- generated on 2024-11-01 22:53:07 by Eclipse SUMO polyconvert Version 1.20.0
<configuration xmlns:xsi="http://www.w3.org/2001/XMLSchema-instance" xsi:noNamespaceSchemaLocation="http://sumo.dlr.de/xsd/polyconvertConfiguration.xsd">

    <input>
        <osm-files value="asanH_withPoly.osm"/>
    </input>

    <output>
        <output-file value="asanH.poly.xml"/>
    </output>

    <projection>
        <proj.scale value="1.00000"/>
        <proj.utm value="true"/>
        <proj.plain-geo value="true"/>
    </projection>

</configuration>
-->

<additional xmlns:xsi="http://www.w3.org/2001/XMLSchema-instance" xsi:noNamespaceSchemaLocation="http://sumo.dlr.de/xsd/additional_file.xsd">
    <poly id="1034999024" type="amenity" color="237,199,199" fill="1" layer="-1.000000" geo="1" shape="127.117683,37.511865 127.117684,37.511892 127.117694,37.511918 127.117709,37.511937 127.117728,37.511953 127.117752,37.511965 127.117804,37.511916 127.117760,37.511852 127.117683,37.511865"/>
    <poly id="1034999024#1" type="building" color="255,230,230" fill="1" layer="-1.00" geo="1" shape="127.117683,37.511865 127.117684,37.511892 127.117694,37.511918 127.117709,37.511937 127.117728,37.511953 127.117752,37.511965 127.117804,37.511916 127.117760,37.511852 127.117683,37.511865"/>
    <poly id="1078755040" type="building" color="255,230,230" fill="1" layer="-1.00" geo="1" shape="127.115603,37.509854 127.115744,37.509799 127.115680,37.509697 127.115540,37.509752 127.115603,37.509854"/>
    <poly id="1078755044" type="building" color="255,230,230" fill="1" layer="-1.00" geo="1" shape="127.118008,37.511973 127.117879,37.512023 127.118152,37.512464 127.118281,37.512414 127.118008,37.511973"/>
    <poly id="1080225619" type="building" color="255,230,230" fill="1" layer="-1.00" geo="1" shape="127.106972,37.510116 127.106994,37.510098 127.106905,37.510025 127.106764,37.510133 127.106853,37.510206 127.106878,37.510187 127.107481,37.510685 127.107574,37.510613 127.106972,37.510116"/>
    <poly id="1080225620" type="building" color="255,230,230" fill="1" layer="-1.00" geo="1" shape="127.107210,37.509978 127.107866,37.510520 127.107958,37.510449 127.107302,37.509908 127.107210,37.509978"/>
    <poly id="1090409108" type="building" color="255,230,230" fill="1" layer="-1.00" geo="1" shape="127.110118,37.509727 127.110006,37.509775 127.109958,37.509716 127.109982,37.509657 127.110051,37.509631 127.110118,37.509727"/>
    <poly id="1099920442" type="building" color="255,230,230" fill="1" layer="-1.00" geo="1" shape="127.106758,37.522925 127.106744,37.523012 127.106564,37.522999 127.106553,37.523031 127.106315,37.523026 127.106319,37.522991 127.106270,37.522984 127.106298,37.522891 127.106412,37.522905 127.106418,37.522782 127.106456,37.522785 127.106441,37.522901 127.106758,37.522925"/>
    <poly id="1099920443" type="building" color="255,230,230" fill="1" layer="-1.00" geo="1" shape="127.105692,37.522877 127.105694,37.522937 127.105994,37.522937 127.105996,37.523031 127.105547,37.523029 127.105545,37.522959 127.105645,37.522961 127.105647,37.522873 127.105692,37.522877"/>
    <poly id="1099920444" type="building" color="255,230,230" fill="1" layer="-1.00" geo="1" shape="127.108714,37.520850 127.108569,37.520925 127.108683,37.521063 127.108828,37.520987 127.108714,37.520850"/>
    <poly id="1101504850" type="building" color="255,230,230" fill="1" layer="-1.00" geo="1" shape="127.105407,37.514746 127.105582,37.514804 127.105629,37.514715 127.105454,37.514657 127.105407,37.514746"/>
    <poly id="1101504851" type="amenity" color="237,199,199" fill="1" layer="-1.00" geo="1" shape="127.100951,37.512792 127.100985,37.512804 127.101060,37.512678 127.101028,37.512662 127.100951,37.512792"/>
    <poly id="1101504851#1" type="building" color="255,230,230" fill="1" layer="-1.00" geo="1" shape="127.100951,37.512792 127.100985,37.512804 127.101060,37.512678 127.101028,37.512662 127.100951,37.512792"/>
    <poly id="1119603436" type="building" color="255,230,230" fill="1" layer="-1.00" geo="1" shape="127.105614,37.509255 127.105692,37.509187 127.105561,37.509092 127.105486,37.509153 127.105614,37.509255"/>
    <poly id="1119603437" type="building" color="255,230,230" fill="1" layer="-1.00" geo="1" shape="127.105462,37.509140 127.105348,37.509056 127.105419,37.508993 127.105534,37.509077 127.105462,37.509140"/>
    <poly id="1119603438" type="building" color="255,230,230" fill="1" layer="-1.00" geo="1" shape="127.105712,37.509158 127.105528,37.509026 127.105626,37.508939 127.105811,37.509072 127.105712,37.509158"/>
    <poly id="1195149914" type="building" color="255,230,230" fill="1" layer="-1.00" geo="1" shape="127.112428,37.516037 127.112220,37.515697 127.112064,37.515757 127.112364,37.516250 127.112695,37.516123 127.112603,37.515972 127.112428,37.516037"/>
    <poly id="1195149915" type="building" color="255,230,230" fill="1" layer="-1.00" geo="1" shape="127.111060,37.516455 127.111186,37.516498 127.111212,37.516450 127.111363,37.516500 127.111337,37.516548 127.111464,37.516590 127.111489,37.516542 127.111565,37.516568 127.111588,37.516525 127.111512,37.516500 127.111518,37.516489 127.111594,37.516515 127.111617,37.516472 127.111540,37.516446 127.111560,37.516409 127.111434,37.516367 127.111414,37.516404 127.111263,37.516354 127.111283,37.516317 127.111156,37.516274 127.111137,37.516311 127.111062,37.516286 127.111039,37.516329 127.111114,37.516354 127.111108,37.516365 127.111033,37.516339 127.111010,37.516382 127.111085,37.516407 127.111060,37.516455"/>
    <poly id="1216011529" type="building" color="255,230,230" fill="1" layer="-1.00" geo="1" shape="127.100571,37.509392 127.100625,37.509293 127.100616,37.509279 127.100617,37.509256 127.100631,37.509232 127.100657,37.509222 127.100680,37.509221 127.100722,37.509170 127.100744,37.509148 127.100772,37.509159 127.100725,37.509206 127.100709,37.509229 127.100719,37.509241 127.100723,37.509261 127.100714,37.509284 127.100698,37.509304 127.100672,37.509309 127.100654,37.509307 127.100600,37.509405 127.100571,37.509392"/>
    <poly id="1216011530" type="building" color="255,230,230" fill="1" layer="-1.00" geo="1" shape="127.100022,37.509314 127.100047,37.509278 127.100039,37.509273 127.100086,37.509217 127.100123,37.509210 127.100148,37.509218 127.100138,37.509260 127.100114,37.509293 127.100094,37.509284 127.100060,37.509327 127.100060,37.509368 127.100041,37.509362 127.100022,37.509314"/>
    <poly id="1216011531" type="building" color="255,230,230" fill="1" layer="-1.00" geo="1" shape="127.100217,37.509184 127.100261,37.509124 127.100340,37.509157 127.100322,37.509183 127.100290,37.509168 127.100280,37.509186 127.100258,37.509177 127.100245,37.509195 127.100217,37.509184"/>
    <poly id="1216011535" type="building" color="255,230,230" fill="1" layer="-1.00" geo="1" shape="127.100295,37.509449 127.100309,37.509447 127.100323,37.509449 127.100335,37.509455 127.100344,37.509463 127.100349,37.509473 127.100350,37.509484 127.100346,37.509495 127.100338,37.509504 127.100326,37.509510 127.100313,37.509513 127.100299,37.509512 127.100287,37.509509 127.100277,37.509502 127.100270,37.509493 127.100267,37.509482 127.100268,37.509472 127.100274,37.509462 127.100283,37.509454 127.100295,37.509449"/>
    <poly id="1218503075" type="building" color="255,230,230" fill="1" layer="-1.00" geo="1" shape="127.115286,37.518319 127.115320,37.518244 127.115492,37.518293 127.115459,37.518368 127.115286,37.518319"/>
    <poly id="1218503075#1" type="historic" color="128,255,128" fill="1" layer="-1.00" geo="1" shape="127.115286,37.518319 127.115320,37.518244 127.115492,37.518293 127.115459,37.518368 127.115286,37.518319"/>
    <poly id="1218544137" type="building" color="255,230,230" fill="1" layer="-1.00" geo="1" shape="127.114199,37.518615 127.114219,37.518503 127.114370,37.518524 127.114355,37.518577 127.114215,37.518612 127.114199,37.518615"/>
    <poly id="1280873881" type="building" color="255,230,230" fill="1" layer="-1.00" geo="1" shape="127.115461,37.526294 127.115393,37.526195 127.114640,37.526525 127.114708,37.526623 127.115461,37.526294"/>
    <poly id="129600576" type="building" color="255,230,230" fill="1" layer="-1.00" geo="1" shape="127.091426,37.515578 127.091459,37.515487 127.092769,37.515785 127.092736,37.515876 127.091426,37.515578"/>
    <poly id="129600577" type="building" color="255,230,230" fill="1" layer="-1.00" geo="1" shape="127.091193,37.516237 127.091227,37.516146 127.092446,37.516435 127.092412,37.516525 127.091193,37.516237"/>
    <poly id="129600578" type="building" color="255,230,230" fill="1" layer="-1.00" geo="1" shape="127.092145,37.513647 127.092180,37.513563 127.093484,37.513864 127.093448,37.513951 127.092145,37.513647"/>
    <poly id="129600579" type="building" color="255,230,230" fill="1" layer="-1.00" geo="1" shape="127.091663,37.514913 127.091696,37.514824 127.092971,37.515118 127.092939,37.515207 127.091663,37.514913"/>
    <poly id="129600580" type="building" color="255,230,230" fill="1" layer="-1.00" geo="1" shape="127.091900,37.514289 127.091929,37.514202 127.093217,37.514513 127.093185,37.514587 127.091900,37.514289"/>
    <poly id="129600581" type="building" color="255,230,230" fill="1" layer="-1.00" geo="1" shape="127.090985,37.516898 127.091015,37.516814 127.092179,37.517075 127.092149,37.517159 127.090985,37.516898"/>
    <poly id="129600582" type="building" color="255,230,230" fill="1" layer="-1.00" geo="1" shape="127.092411,37.513022 127.092445,37.512928 127.093693,37.513220 127.093658,37.513313 127.092411,37.513022"/>
    <poly id="1313537992" type="building" color="255,230,230" fill="1" layer="-1.00" geo="1" shape="127.104992,37.524839 127.104696,37.524582 127.104630,37.524630 127.104572,37.524579 127.104487,37.524641 127.104546,37.524692 127.104463,37.524751 127.104759,37.525008 127.104992,37.524839"/>
    <poly id="1313537993" type="building" color="255,230,230" fill="1" layer="-1.00" geo="1" shape="127.105265,37.524823 127.105043,37.525009 127.105138,37.525081 127.105364,37.524891 127.105356,37.524885 127.105417,37.524833 127.105288,37.524739 127.105225,37.524793 127.105265,37.524823"/>
    <poly id="1313537994" type="building" color="255,230,230" fill="1" layer="-1.00" geo="1" shape="127.105932,37.524851 127.105935,37.524735 127.105445,37.524726 127.105441,37.524842 127.105932,37.524851"/>
    <poly id="1313537995" type="parking" color="184,184,179" fill="1" layer="-1.00" geo="1" shape="127.112151,37.526182 127.111586,37.526532 127.110701,37.525634 127.111266,37.525284 127.112151,37.526182"/>
    <poly id="1313537995#1" type="building" color="255,230,230" fill="1" layer="-1.00" geo="1" shape="127.112151,37.526182 127.111586,37.526532 127.110701,37.525634 127.111266,37.525284 127.112151,37.526182"/>
    <poly id="1313537996" type="building" color="255,230,230" fill="1" layer="-1.00" geo="1" shape="127.108250,37.524951 127.107749,37.525272 127.107442,37.524984 127.107647,37.524850 127.108130,37.524851 127.108250,37.524951"/>
    <poly id="1313537997" type="building" color="255,230,230" fill="1" layer="-1.00" geo="1" shape="127.106563,37.525889 127.106506,37.525823 127.106663,37.525709 127.106605,37.525649 127.106836,37.525508 127.106784,37.525454 127.106842,37.525418 127.106818,37.525394 127.107151,37.525211 127.107096,37.525159 127.107130,37.525140 127.107098,37.525106 127.107191,37.525054 127.107170,37.525022 127.107310,37.524945 127.107590,37.525232 127.106563,37.525889"/>
    <poly id="1314193060" type="building" color="255,230,230" fill="1" layer="-1.00" geo="1" shape="127.108962,37.525135 127.109026,37.525092 127.108993,37.525063 127.109313,37.524856 127.109414,37.524864 127.109479,37.524924 127.109394,37.524969 127.109504,37.525071 127.109740,37.524918 127.109778,37.524953 127.109831,37.524916 127.109925,37.524923 127.109985,37.524978 127.109576,37.525247 127.109385,37.525371 127.109402,37.525393 127.109297,37.525458 127.109254,37.525414 127.108962,37.525135"/>
    <poly id="169795596" type="building" color="255,230,230" fill="1" layer="-1.00" geo="1" shape="127.107173,37.514837 127.107422,37.514212 127.107770,37.514334 127.107519,37.514942 127.107173,37.514837"/>
    <poly id="26281660" type="building" color="255,230,230" fill="1" layer="-1.00" geo="1" shape="127.095901,37.511743 127.096028,37.511786 127.096138,37.511823 127.096244,37.511853 127.096385,37.511883 127.096506,37.511905 127.096670,37.511927 127.098713,37.512436 127.098884,37.512005 127.098923,37.511910 127.099339,37.511736 127.099946,37.511888 127.099952,37.511872 127.100402,37.511697 127.100590,37.511214 127.100451,37.510992 127.100250,37.511075 127.100064,37.511156 127.100027,37.511169 127.100027,37.511143 127.100018,37.511125 127.100009,37.511110 127.099990,37.511097 127.099971,37.511088 127.099946,37.511083 127.099925,37.511083 127.099899,37.511086 127.099885,37.511091 127.099873,37.511098 127.099862,37.511107 127.099853,37.511118 127.099829,37.511152 127.099786,37.511120 127.099738,37.511088 127.099705,37.511061 127.099665,37.511029 127.099594,37.510965 127.099525,37.510883 127.099469,37.510799 127.099786,37.510871 127.099865,37.510890 127.099961,37.510912 127.099979,37.510864 127.100123,37.510899 127.100163,37.510910 127.100262,37.510934 127.100372,37.510670 127.100165,37.510615 127.100173,37.510593 127.099935,37.510524 127.099945,37.510502 127.099739,37.510442 127.099729,37.510464 127.099571,37.510419 127.099359,37.510434 127.099141,37.510380 127.099052,37.510358 127.099025,37.510351 127.099012,37.510348 127.098998,37.510379 127.098533,37.510257 127.098498,37.510348 127.098081,37.510240 127.098041,37.510329 127.097622,37.510221 127.097586,37.510304 127.097191,37.510207 127.097158,37.510291 127.096983,37.510252 127.096997,37.510211 127.096936,37.510199 127.096874,37.510194 127.096811,37.510195 127.096748,37.510202 127.096655,37.510227 127.096575,37.510266 127.096511,37.510315 127.096466,37.510367 127.096425,37.510431 127.096385,37.510529 127.096265,37.510498 127.096193,37.510688 127.096164,37.510697 127.096134,37.510712 127.096105,37.510728 127.096079,37.510746 127.096056,37.510765 127.096033,37.510789 127.096014,37.510814 127.095998,37.510842 127.095986,37.510869 127.095980,37.510904 127.095978,37.510936 127.095980,37.510969 127.095987,37.511000 127.095998,37.511031 127.096015,37.511058 127.096038,37.511082 127.095976,37.511235 127.096145,37.511277 127.096137,37.511300 127.096082,37.511286 127.095901,37.511743"/>
    <poly id="26281660#1" type="shop" color="237,199,255" fill="1" layer="-1.00" geo="1" shape="127.095901,37.511743 127.096028,37.511786 127.096138,37.511823 127.096244,37.511853 127.096385,37.511883 127.096506,37.511905 127.096670,37.511927 127.098713,37.512436 127.098884,37.512005 127.098923,37.511910 127.099339,37.511736 127.099946,37.511888 127.099952,37.511872 127.100402,37.511697 127.100590,37.511214 127.100451,37.510992 127.100250,37.511075 127.100064,37.511156 127.100027,37.511169 127.100027,37.511143 127.100018,37.511125 127.100009,37.511110 127.099990,37.511097 127.099971,37.511088 127.099946,37.511083 127.099925,37.511083 127.099899,37.511086 127.099885,37.511091 127.099873,37.511098 127.099862,37.511107 127.099853,37.511118 127.099829,37.511152 127.099786,37.511120 127.099738,37.511088 127.099705,37.511061 127.099665,37.511029 127.099594,37.510965 127.099525,37.510883 127.099469,37.510799 127.099786,37.510871 127.099865,37.510890 127.099961,37.510912 127.099979,37.510864 127.100123,37.510899 127.100163,37.510910 127.100262,37.510934 127.100372,37.510670 127.100165,37.510615 127.100173,37.510593 127.099935,37.510524 127.099945,37.510502 127.099739,37.510442 127.099729,37.510464 127.099571,37.510419 127.099359,37.510434 127.099141,37.510380 127.099052,37.510358 127.099025,37.510351 127.099012,37.510348 127.098998,37.510379 127.098533,37.510257 127.098498,37.510348 127.098081,37.510240 127.098041,37.510329 127.097622,37.510221 127.097586,37.510304 127.097191,37.510207 127.097158,37.510291 127.096983,37.510252 127.096997,37.510211 127.096936,37.510199 127.096874,37.510194 127.096811,37.510195 127.096748,37.510202 127.096655,37.510227 127.096575,37.510266 127.096511,37.510315 127.096466,37.510367 127.096425,37.510431 127.096385,37.510529 127.096265,37.510498 127.096193,37.510688 127.096164,37.510697 127.096134,37.510712 127.096105,37.510728 127.096079,37.510746 127.096056,37.510765 127.096033,37.510789 127.096014,37.510814 127.095998,37.510842 127.095986,37.510869 127.095980,37.510904 127.095978,37.510936 127.095980,37.510969 127.095987,37.511000 127.095998,37.511031 127.096015,37.511058 127.096038,37.511082 127.095976,37.511235 127.096145,37.511277 127.096137,37.511300 127.096082,37.511286 127.095901,37.511743"/>
    <poly id="357630219" type="building" color="255,230,230" fill="1" layer="-1.00" geo="1" shape="127.102867,37.513699 127.102960,37.513733 127.102953,37.513750 127.104278,37.514198 127.104308,37.514142 127.104456,37.514192 127.104492,37.514124 127.104503,37.514127 127.104511,37.514168 127.104524,37.514202 127.104547,37.514231 127.104581,37.514264 127.104623,37.514290 127.104695,37.514326 127.104776,37.514357 127.104865,37.514384 127.104948,37.514406 127.105005,37.514417 127.105052,37.514420 127.105099,37.514415 127.105151,37.514400 127.105207,37.514372 127.105246,37.514342 127.105285,37.514284 127.105332,37.514209 127.105393,37.514097 127.105497,37.513905 127.105484,37.513897 127.105522,37.513821 127.105534,37.513790 127.105539,37.513758 127.105536,37.513734 127.105548,37.513721 127.105533,37.513685 127.105514,37.513651 127.105479,37.513619 127.105435,37.513593 127.105344,37.513550 127.105248,37.513514 127.105142,37.513482 127.105039,37.513463 127.104952,37.513465 127.104880,37.513488 127.104841,37.513509 127.104826,37.513504 127.104859,37.513442 127.104738,37.513401 127.104746,37.513369 127.104745,37.513346 127.104733,37.513326 127.104707,37.513307 127.104662,37.513285 127.104511,37.513233 127.104352,37.513180 127.104284,37.513157 127.104188,37.513128 127.104033,37.513092 127.103967,37.513075 127.103900,37.513055 127.103876,37.513102 127.103852,37.513136 127.103824,37.513174 127.103756,37.513236 127.103683,37.513292 127.103610,37.513333 127.103530,37.513366 127.103460,37.513389 127.103370,37.513408 127.103300,37.513417 127.103230,37.513419 127.103135,37.513415 127.103038,37.513395 127.102981,37.513498 127.102936,37.513579 127.102893,37.513655 127.102897,37.513661 127.102898,37.513668 127.102889,37.513678 127.102874,37.513691 127.102867,37.513699"/>
    <poly id="357630219#1" type="shop" color="237,199,255" fill="1" layer="-1.00" geo="1" shape="127.102867,37.513699 127.102960,37.513733 127.102953,37.513750 127.104278,37.514198 127.104308,37.514142 127.104456,37.514192 127.104492,37.514124 127.104503,37.514127 127.104511,37.514168 127.104524,37.514202 127.104547,37.514231 127.104581,37.514264 127.104623,37.514290 127.104695,37.514326 127.104776,37.514357 127.104865,37.514384 127.104948,37.514406 127.105005,37.514417 127.105052,37.514420 127.105099,37.514415 127.105151,37.514400 127.105207,37.514372 127.105246,37.514342 127.105285,37.514284 127.105332,37.514209 127.105393,37.514097 127.105497,37.513905 127.105484,37.513897 127.105522,37.513821 127.105534,37.513790 127.105539,37.513758 127.105536,37.513734 127.105548,37.513721 127.105533,37.513685 127.105514,37.513651 127.105479,37.513619 127.105435,37.513593 127.105344,37.513550 127.105248,37.513514 127.105142,37.513482 127.105039,37.513463 127.104952,37.513465 127.104880,37.513488 127.104841,37.513509 127.104826,37.513504 127.104859,37.513442 127.104738,37.513401 127.104746,37.513369 127.104745,37.513346 127.104733,37.513326 127.104707,37.513307 127.104662,37.513285 127.104511,37.513233 127.104352,37.513180 127.104284,37.513157 127.104188,37.513128 127.104033,37.513092 127.103967,37.513075 127.103900,37.513055 127.103876,37.513102 127.103852,37.513136 127.103824,37.513174 127.103756,37.513236 127.103683,37.513292 127.103610,37.513333 127.103530,37.513366 127.103460,37.513389 127.103370,37.513408 127.103300,37.513417 127.103230,37.513419 127.103135,37.513415 127.103038,37.513395 127.102981,37.513498 127.102936,37.513579 127.102893,37.513655 127.102897,37.513661 127.102898,37.513668 127.102889,37.513678 127.102874,37.513691 127.102867,37.513699"/>
    <poly id="357630220" type="building" color="255,230,230" fill="1" layer="-1.00" geo="1" shape="127.101894,37.513374 127.101804,37.513344 127.101703,37.513295 127.101614,37.513233 127.101527,37.513152 127.101456,37.513047 127.101522,37.513026 127.101490,37.512973 127.101472,37.512927 127.101458,37.512867 127.101451,37.512818 127.101384,37.512830 127.101384,37.512767 127.101388,37.512712 127.101398,37.512658 127.101414,37.512610 127.101432,37.512567 127.101451,37.512526 127.101480,37.512482 127.101515,37.512432 127.101811,37.512071 127.101910,37.512123 127.102246,37.512294 127.102325,37.512342 127.102311,37.512369 127.102297,37.512394 127.102283,37.512421 127.102270,37.512446 127.102258,37.512473 127.102246,37.512497 127.102233,37.512526 127.102223,37.512552 127.102213,37.512580 127.102204,37.512606 127.102195,37.512634 127.102187,37.512661 127.102182,37.512672 127.102179,37.512679 127.102179,37.512683 127.102178,37.512687 127.102167,37.512692 127.102167,37.512694 127.102166,37.512697 127.102184,37.512691 127.102189,37.512700 127.102170,37.512706 127.102175,37.512708 127.102177,37.512709 127.102185,37.512707 127.102190,37.512710 127.102195,37.512712 127.102200,37.512715 127.102203,37.512716 127.102219,37.512723 127.102249,37.512737 127.102278,37.512752 127.102292,37.512758 127.102120,37.512863 127.102155,37.512908 127.102209,37.512973 127.102277,37.513048 127.102368,37.513115 127.102459,37.513178 127.102555,37.513229 127.102650,37.513267 127.102616,37.513364 127.102585,37.513450 127.102535,37.513593 127.102485,37.513577 127.101894,37.513374"/>
    <poly id="357630220#1" type="shop" color="237,199,255" fill="1" layer="-1.00" geo="1" shape="127.101894,37.513374 127.101804,37.513344 127.101703,37.513295 127.101614,37.513233 127.101527,37.513152 127.101456,37.513047 127.101522,37.513026 127.101490,37.512973 127.101472,37.512927 127.101458,37.512867 127.101451,37.512818 127.101384,37.512830 127.101384,37.512767 127.101388,37.512712 127.101398,37.512658 127.101414,37.512610 127.101432,37.512567 127.101451,37.512526 127.101480,37.512482 127.101515,37.512432 127.101811,37.512071 127.101910,37.512123 127.102246,37.512294 127.102325,37.512342 127.102311,37.512369 127.102297,37.512394 127.102283,37.512421 127.102270,37.512446 127.102258,37.512473 127.102246,37.512497 127.102233,37.512526 127.102223,37.512552 127.102213,37.512580 127.102204,37.512606 127.102195,37.512634 127.102187,37.512661 127.102182,37.512672 127.102179,37.512679 127.102179,37.512683 127.102178,37.512687 127.102167,37.512692 127.102167,37.512694 127.102166,37.512697 127.102184,37.512691 127.102189,37.512700 127.102170,37.512706 127.102175,37.512708 127.102177,37.512709 127.102185,37.512707 127.102190,37.512710 127.102195,37.512712 127.102200,37.512715 127.102203,37.512716 127.102219,37.512723 127.102249,37.512737 127.102278,37.512752 127.102292,37.512758 127.102120,37.512863 127.102155,37.512908 127.102209,37.512973 127.102277,37.513048 127.102368,37.513115 127.102459,37.513178 127.102555,37.513229 127.102650,37.513267 127.102616,37.513364 127.102585,37.513450 127.102535,37.513593 127.102485,37.513577 127.101894,37.513374"/>
    <poly id="357631365" type="building" color="255,230,230" fill="1" layer="-1.00" geo="1" shape="127.105691,37.514689 127.106169,37.514836 127.106253,37.514664 127.106349,37.514468 127.105987,37.514357 127.106056,37.514214 127.105777,37.514128 127.105634,37.514382 127.105811,37.514445 127.105691,37.514689"/>
    <poly id="357631438" type="building" color="255,230,230" fill="1" layer="-1.00" geo="1" shape="127.102558,37.516549 127.103050,37.516721 127.103286,37.516297 127.103311,37.516306 127.103470,37.516019 127.102905,37.515822 127.102814,37.515986 127.102862,37.516002 127.102558,37.516549"/>
    <poly id="357631438#1" type="shop" color="237,199,255" fill="1" layer="-1.00" geo="1" shape="127.102558,37.516549 127.103050,37.516721 127.103286,37.516297 127.103311,37.516306 127.103470,37.516019 127.102905,37.515822 127.102814,37.515986 127.102862,37.516002 127.102558,37.516549"/>
    <poly id="418851265" type="building" color="255,230,230" fill="1" layer="-1.00" geo="1" shape="127.108905,37.527928 127.108406,37.527433 127.108763,37.527206 127.109038,37.527032 127.109267,37.526887 127.109795,37.527410 127.109983,37.527596 127.109552,37.527870 127.109532,37.527850 127.109291,37.528004 127.109182,37.527896 127.109056,37.527976 127.108967,37.527888 127.108905,37.527928"/>
    <poly id="418851266" type="building" color="255,230,230" fill="1" layer="-1.00" geo="1" shape="127.108771,37.527173 127.109240,37.526878 127.109160,37.526798 127.108446,37.526084 127.108194,37.526242 127.107977,37.526379 127.107975,37.526380 127.107542,37.526652 127.108257,37.527366 127.108691,37.527093 127.108771,37.527173"/>
    <poly id="418851267" type="building" color="255,230,230" fill="1" layer="-1.00" geo="1" shape="127.107624,37.525283 127.107364,37.525450 127.107152,37.525586 127.106699,37.525877 127.106601,37.525939 127.106660,37.525996 127.106759,37.525932 127.107434,37.526594 127.107875,37.526312 127.108090,37.526173 127.108356,37.526002 127.107624,37.525283"/>
    <poly id="418851268" type="building" color="255,230,230" fill="1" layer="-1.00" geo="1" shape="127.110620,37.524825 127.110357,37.524985 127.110414,37.525044 127.109790,37.525422 127.110096,37.525739 127.110983,37.525201 127.110620,37.524825"/>
    <poly id="418851272" type="building" color="255,230,230" fill="1" layer="-1.00" geo="1" shape="127.109426,37.525510 127.109855,37.525920 127.110058,37.525786 127.109629,37.525377 127.109426,37.525510"/>
    <poly id="468748444" type="building" color="255,230,230" fill="1" layer="-1.00" geo="1" shape="127.094691,37.512756 127.094739,37.512608 127.096132,37.512902 127.096077,37.513058 127.094691,37.512756"/>
    <poly id="468748445" type="building" color="255,230,230" fill="1" layer="-1.00" geo="1" shape="127.096310,37.512900 127.096342,37.512812 127.097545,37.513087 127.097513,37.513174 127.096310,37.512900"/>
    <poly id="468748446" type="building" color="255,230,230" fill="1" layer="-1.00" geo="1" shape="127.097764,37.513316 127.097794,37.513231 127.099015,37.513504 127.098985,37.513589 127.097764,37.513316"/>
    <poly id="468748447" type="building" color="255,230,230" fill="1" layer="-1.00" geo="1" shape="127.096172,37.513556 127.096204,37.513467 127.097268,37.513712 127.097235,37.513801 127.096172,37.513556"/>
    <poly id="468748449" type="building" color="255,230,230" fill="1" layer="-1.00" geo="1" shape="127.097526,37.513970 127.097558,37.513885 127.098801,37.514177 127.098774,37.514250 127.097526,37.513970"/>
    <poly id="468748450" type="building" color="255,230,230" fill="1" layer="-1.00" geo="1" shape="127.095309,37.514499 127.095340,37.514413 127.096557,37.514689 127.096525,37.514775 127.095309,37.514499"/>
    <poly id="468748451" type="building" color="255,230,230" fill="1" layer="-1.00" geo="1" shape="127.097071,37.514639 127.097101,37.514555 127.098310,37.514833 127.098279,37.514917 127.097071,37.514639"/>
    <poly id="468748452" type="building" color="255,230,230" fill="1" layer="-1.00" geo="1" shape="127.096455,37.515338 127.096489,37.515250 127.097703,37.515541 127.097669,37.515630 127.096455,37.515338"/>
    <poly id="468748454" type="building" color="255,230,230" fill="1" layer="-1.00" geo="1" shape="127.094064,37.513748 127.093936,37.513621 127.094099,37.513531 127.094218,37.513643 127.094064,37.513748"/>
    <poly id="468748455" type="building" color="255,230,230" fill="1" layer="-1.00" geo="1" shape="127.093846,37.514396 127.093758,37.514268 127.093929,37.514181 127.094019,37.514305 127.093846,37.514396"/>
    <poly id="468748456" type="building" color="255,230,230" fill="1" layer="-1.00" geo="1" shape="127.093470,37.514902 127.093671,37.514816 127.093816,37.514933 127.093634,37.515031 127.093470,37.514902"/>
    <poly id="468748457" type="building" color="255,230,230" fill="1" layer="-1.00" geo="1" shape="127.093359,37.515701 127.093258,37.515552 127.093458,37.515461 127.093578,37.515605 127.093359,37.515701"/>
    <poly id="468748458" type="building" color="255,230,230" fill="1" layer="-1.00" geo="1" shape="127.093983,37.515177 127.094154,37.515064 127.094292,37.515190 127.094113,37.515296 127.093983,37.515177"/>
    <poly id="468748459" type="building" color="255,230,230" fill="1" layer="-1.00" geo="1" shape="127.094146,37.514620 127.094176,37.514536 127.095149,37.514752 127.095120,37.514836 127.094146,37.514620"/>
    <poly id="468748460" type="building" color="255,230,230" fill="1" layer="-1.00" geo="1" shape="127.095200,37.515986 127.095572,37.515011 127.095679,37.515037 127.095306,37.516011 127.095200,37.515986"/>
    <poly id="468748461" type="building" color="255,230,230" fill="1" layer="-1.00" geo="1" shape="127.092661,37.517227 127.092968,37.516416 127.093068,37.516440 127.092762,37.517251 127.092661,37.517227"/>
    <poly id="468748462" type="building" color="255,230,230" fill="1" layer="-1.00" geo="1" shape="127.092745,37.517421 127.092778,37.517330 127.093980,37.517607 127.093947,37.517698 127.092745,37.517421"/>
    <poly id="468748463" type="building" color="255,230,230" fill="1" layer="-1.00" geo="1" shape="127.094059,37.517545 127.094368,37.516746 127.094473,37.516771 127.094164,37.517571 127.094059,37.517545"/>
    <poly id="468748464" type="building" color="255,230,230" fill="1" layer="-1.00" geo="1" shape="127.094333,37.517827 127.094367,37.517739 127.095580,37.518035 127.095546,37.518123 127.094333,37.517827"/>
    <poly id="468748465" type="building" color="255,230,230" fill="1" layer="-1.00" geo="1" shape="127.094858,37.517208 127.094891,37.517121 127.096101,37.517410 127.096068,37.517497 127.094858,37.517208"/>