<?xml version="1.0" encoding="UTF-8"?>

<!-- generated on 2024-10-15 16:44:36 by Eclipse SUMO sumo Version 1.20.0
-->

<configuration xmlns:xsi="http://www.w3.org/2001/XMLSchema-instance" xsi:noNamespaceSchemaLocation="http://sumo.dlr.de/xsd/sumoConfiguration.xsd">

    <input>
        <net-file value="erlangen.net.xml"/>
        <route-files value="erlangen.rou.xml"/>
        <additional-files value="erlangen.poly.xml"/>
    </input>
    <time>
    	<begin value="0"/>
    	<end value="1000"/>
    	<step-length value="0.1" />
    </time>
    <processing>
    	<time-to-teleport value="-1"/>
    </processing>
    <gui_only>
    	<start value="true"/>
    </gui_only>

</configuration>