<?xml version="1.0" encoding="UTF-8"?>

<!-- generated on 2024-10-31 15:55:26 by Eclipse SUMO netedit Version 1.20.0
<configuration xmlns:xsi="http://www.w3.org/2001/XMLSchema-instance" xsi:noNamespaceSchemaLocation="http://sumo.dlr.de/xsd/neteditConfiguration.xsd">

    <input>
        <sumo-net-file value="D:\share\capstone_1\V2X-SumoSimulation\v2i_test\netedit_test\1.net.xml"/>
    </input>

    <output>
        <output-file value="D:\share\capstone_1\V2X-SumoSimulation\v2i_test\netedit_test\1.net.xml"/>
    </output>

    <processing>
        <offset.disable-normalization value="true"/>
    </processing>

    <junctions>
        <no-turnarounds value="true"/>
    </junctions>

    <netedit>
        <new-network value="false"/>
    </netedit>

</configuration>
-->

<net version="1.20" junctionCornerDetail="5" limitTurnSpeed="5.50" xmlns:xsi="http://www.w3.org/2001/XMLSchema-instance" xsi:noNamespaceSchemaLocation="http://sumo.dlr.de/xsd/net_file.xsd">

    <location netOffset="0.00,0.00" convBoundary="-73.28,50.67,14.47,129.35" origBoundary="10000000000.00,10000000000.00,-10000000000.00,-10000000000.00" projParameter="!"/>

    <edge id=":J1_0" function="internal">
        <lane id=":J1_0_0" index="0" speed="6.11" length="9.06" shape="-37.12,77.30 -36.62,79.81 -35.44,81.38 -33.57,82.02 -31.03,81.72"/>
    </edge>
    <edge id=":J1_1" function="internal">
        <lane id=":J1_1_0" index="0" speed="13.89" length="12.05" shape="-37.12,77.30 -36.77,89.34"/>
    </edge>
    <edge id=":J1_2" function="internal">
        <lane id=":J1_2_0" index="0" speed="13.89" length="11.70" shape="-42.51,83.56 -39.29,83.53 -36.71,83.19 -34.16,82.57 -31.03,81.72"/>
    </edge>
    <edge id=":J1_3" function="internal">
        <lane id=":J1_3_0" index="0" speed="6.62" length="4.06" shape="-42.51,83.56 -39.96,84.00 -38.71,84.77"/>
    </edge>
    <edge id=":J1_4" function="internal">
        <lane id=":J1_4_0" index="0" speed="6.62" length="5.20" shape="-38.71,84.77 -38.15,85.11 -37.08,86.89 -36.77,89.34"/>
    </edge>

    <edge id="E0" from="J0" to="J1" priority="-1">
        <lane id="E0_0" index="0" speed="13.89" length="30.72" shape="-73.22,82.49 -42.51,83.56"/>
    </edge>
    <edge id="E1" from="J2" to="J1" priority="-1">
        <lane id="E1_0" index="0" speed="13.89" length="26.76" shape="-38.60,50.58 -37.12,77.30"/>
    </edge>
    <edge id="E2" from="J1" to="J4" priority="-1">
        <lane id="E2_0" index="0" speed="13.89" length="46.66" shape="-31.03,81.72 14.05,69.66"/>
    </edge>
    <edge id="E3" from="J1" to="J5" priority="-1">
        <lane id="E3_0" index="0" speed="13.89" length="40.05" shape="-36.77,89.34 -37.58,129.38"/>
    </edge>

    <junction id="J0" type="dead_end" x="-73.28" y="84.09" incLanes="" intLanes="" shape="-73.28,84.09 -73.16,80.89"/>
    <junction id="J1" type="priority" x="-38.28" y="85.31" incLanes="E1_0 E0_0" intLanes=":J1_0_0 :J1_1_0 :J1_2_0 :J1_4_0" shape="-30.62,83.26 -31.44,80.17 -33.61,80.30 -34.40,79.95 -34.97,79.31 -35.35,78.40 -35.53,77.21 -38.72,77.39 -39.02,79.99 -39.53,80.89 -40.27,81.52 -41.24,81.88 -42.46,81.96 -42.57,85.16 -40.20,85.69 -39.38,86.27 -38.80,87.07 -38.46,88.08 -38.37,89.31 -35.17,89.38 -34.62,86.51 -33.98,85.38 -33.10,84.47 -31.98,83.76">
        <request index="0" response="0000" foes="0100" cont="0"/>
        <request index="1" response="0000" foes="1100" cont="0"/>
        <request index="2" response="0011" foes="0011" cont="0"/>
        <request index="3" response="0010" foes="0010" cont="1"/>
    </junction>
    <junction id="J2" type="dead_end" x="-40.20" y="50.67" incLanes="" intLanes="" shape="-40.20,50.67 -37.00,50.49"/>
    <junction id="J4" type="dead_end" x="14.47" y="71.21" incLanes="E2_0" intLanes="" shape="13.64,68.12 14.47,71.21"/>
    <junction id="J5" type="dead_end" x="-39.18" y="129.35" incLanes="E3_0" intLanes="" shape="-35.98,129.42 -39.18,129.35"/>

    <junction id=":J1_4_0" type="internal" x="-38.71" y="84.77" incLanes=":J1_3_0 E1_0" intLanes=":J1_1_0"/>

    <connection from="E0" to="E2" fromLane="0" toLane="0" via=":J1_2_0" dir="s" state="m"/>
    <connection from="E0" to="E3" fromLane="0" toLane="0" via=":J1_3_0" dir="l" state="m"/>
    <connection from="E1" to="E2" fromLane="0" toLane="0" via=":J1_0_0" dir="r" state="M"/>
    <connection from="E1" to="E3" fromLane="0" toLane="0" via=":J1_1_0" dir="s" state="M"/>

    <connection from=":J1_0" to="E2" fromLane="0" toLane="0" dir="r" state="M"/>
    <connection from=":J1_1" to="E3" fromLane="0" toLane="0" dir="s" state="M"/>
    <connection from=":J1_2" to="E2" fromLane="0" toLane="0" dir="s" state="M"/>
    <connection from=":J1_3" to="E3" fromLane="0" toLane="0" via=":J1_4_0" dir="l" state="m"/>
    <connection from=":J1_4" to="E3" fromLane="0" toLane="0" dir="l" state="M"/>

</net>
